@<TRIPOS>MOLECULE
./divided-files/3rlb/LIGAND.pdb
 36 37 0 0 0
SMALL
GASTEIGER

@<TRIPOS>ATOM
      1 N4A        54.5880   35.7350   34.1430 N.pl3 177  VIB177177   -0.3428
      2 C4A        54.8180   36.0100   32.8420 C.ar  177  VIB177177    0.1243
      3 N3A        56.0540   36.3550   32.4890 N.ar  177  VIB177177   -0.2177
      4 C2A        56.3930   36.5590   31.1890 C.ar  177  VIB177177    0.1280
      5 CM2        57.8120   36.9480   30.8820 C.3   177  VIB177177   -0.0046
      6 N1A        55.4740   36.4920   30.2120 N.ar  177  VIB177177   -0.2401
      7 C6A        54.2020   36.1650   30.5170 C.ar  177  VIB177177    0.0376
      8 C5A        53.8380   35.9290   31.8500 C.ar  177  VIB177177    0.0274
      9 C7A        52.4340   35.5490   32.1910 C.3   177  VIB177177    0.0425
     10 N3         51.7050   36.5450   32.9900 N.pl3 177  VIB177177   -0.3187
     11 C4         50.4470   36.3110   33.4600 C.2   177  VIB177177    0.0139
     12 CM4        49.6420   35.0620   33.3030 C.3   177  VIB177177   -0.0258
     13 C2         52.1620   37.7520   33.3470 C.3   177  VIB177177    0.0629
     14 S1         51.0910   38.7160   34.3180 S.3   177  VIB177177   -0.1088
     15 C5         49.9550   37.4200   34.2320 C.2   177  VIB177177    0.0058
     16 C6         48.6340   37.5630   34.9380 C.3   177  VIB177177    0.0030
     17 C7         47.7910   38.5770   34.2000 C.3   177  VIB177177    0.0487
     18 O1         46.5040   37.9790   34.1330 O.3   177  VIB177177   -0.3947
     19 H          53.6855   35.4765   34.4394 H     177  VIB177177    0.1437
     20 H          55.3227   35.7929   34.7957 H     177  VIB177177    0.1437
     21 H          57.9270   37.0729   29.8256 H     177  VIB177177    0.0308
     22 H          58.4743   36.1806   31.2246 H     177  VIB177177    0.0308
     23 H          58.0449   37.8674   31.3773 H     177  VIB177177    0.0308
     24 H          53.4957   36.0884   29.7684 H     177  VIB177177    0.0834
     25 H          52.4614   34.6334   32.7440 H     177  VIB177177    0.0515
     26 H          51.9097   35.4641   31.2621 H     177  VIB177177    0.0515
     27 H          50.1810   34.3641   32.6969 H     177  VIB177177    0.0290
     28 H          48.7090   35.2956   32.8340 H     177  VIB177177    0.0290
     29 H          49.4595   34.6319   34.2656 H     177  VIB177177    0.0290
     30 H          52.3745   38.2992   32.4524 H     177  VIB177177    0.0582
     31 H          53.0186   37.5660   33.9607 H     177  VIB177177    0.0582
     32 H          48.1302   36.6191   34.9518 H     177  VIB177177    0.0341
     33 H          48.7946   37.8891   35.9444 H     177  VIB177177    0.0341
     34 H          47.7523   39.5013   34.7376 H     177  VIB177177    0.0560
     35 H          48.1848   38.8107   33.2329 H     177  VIB177177    0.0560
     36 H          46.1900   37.7861   35.0303 H     177  VIB177177    0.2094
@<TRIPOS>BOND
     1     6     7   ar
     2     6     4   ar
     3     7     8   ar
     4     5     4    1
     5     4     3   ar
     6     8     9    1
     7     8     2   ar
     8     9    10    1
     9     3     2   ar
    10     2     1    1
    11    10    13    1
    12    10    11    1
    13    12    11    1
    14    13    14    1
    15    11    15    2
    16    18    17    1
    17    17    16    1
    18    15    14    1
    19    15    16    1
    20     1    19    1
    21     1    20    1
    22     5    21    1
    23     5    22    1
    24     5    23    1
    25     7    24    1
    26     9    25    1
    27     9    26    1
    28    12    27    1
    29    12    28    1
    30    12    29    1
    31    13    30    1
    32    13    31    1
    33    16    32    1
    34    16    33    1
    35    17    34    1
    36    17    35    1
    37    18    36    1
