@<TRIPOS>MOLECULE
./divided-files/3rlb/LIGAND.pdb
 18 19 0 0 0
SMALL
GASTEIGER

@<TRIPOS>ATOM
      1  N4A       54.5880   35.7350   34.1430 N.pl3 177  VIB177     -0.1074
      2  C4A       54.8180   36.0100   32.8420 C.ar  177  VIB177      0.1701
      3  N3A       56.0540   36.3550   32.4890 N.ar  177  VIB177     -0.2130
      4  C2A       56.3930   36.5590   31.1890 C.ar  177  VIB177      0.1411
      5  CM2       57.8120   36.9480   30.8820 C.3   177  VIB177      0.0737
      6  N1A       55.4740   36.4920   30.2120 N.ar  177  VIB177     -0.2293
      7  C6A       54.2020   36.1650   30.5170 C.ar  177  VIB177      0.1005
      8  C5A       53.8380   35.9290   31.8500 C.ar  177  VIB177      0.0516
      9  C7A       52.4340   35.5490   32.1910 C.3   177  VIB177      0.1226
     10  N3        51.7050   36.5450   32.9900 N.pl3 177  VIB177     -0.2970
     11  C4        50.4470   36.3110   33.4600 C.2   177  VIB177      0.0279
     12  CM4       49.6420   35.0620   33.3030 C.3   177  VIB177      0.0473
     13  C2        52.1620   37.7520   33.3470 C.3   177  VIB177      0.1543
     14  S1        51.0910   38.7160   34.3180 S.3   177  VIB177     -0.0951
     15  C5        49.9550   37.4200   34.2320 C.2   177  VIB177      0.0165
     16  C6        48.6340   37.5630   34.9380 C.3   177  VIB177      0.0691
     17  C7        47.7910   38.5770   34.2000 C.3   177  VIB177      0.1873
     18  O1        46.5040   37.9790   34.1330 O.3   177  VIB177     -0.2200
@<TRIPOS>BOND
     1     6     7   ar
     2     6     4   ar
     3     7     8   ar
     4     5     4    1
     5     4     3   ar
     6     8     9    1
     7     8     2   ar
     8     9    10    1
     9     3     2   ar
    10     2     1    1
    11    10    13    1
    12    10    11    1
    13    12    11    1
    14    13    14    1
    15    11    15    2
    16    18    17    1
    17    17    16    1
    18    15    14    1
    19    15    16    1
