@<TRIPOS>MOLECULE
H7D
   43    44     1     0     0
SMALL
bcc


@<TRIPOS>ATOM
      1 O           37.6930    50.6170    48.2240 o        359 H7D      -0.838800
      2 C           38.8280    51.0570    48.2450 c        359 H7D       0.910600
      3 O1          39.4840    51.1730    47.1160 o        359 H7D      -0.838800
      4 C1          39.5180    51.4090    49.5350 c3       359 H7D      -0.189700
      5 H1          40.2860    50.6850    49.7120 hc       359 H7D       0.044700
      6 C2          38.4880    51.3520    50.6600 c3       359 H7D      -0.065400
      7 H8          37.7550    52.1200    50.5150 hc       359 H7D       0.052700
      8 H9          38.0000    50.3990    50.6590 hc       359 H7D       0.052700
      9 C3          39.1990    51.5670    51.9890 c3       359 H7D      -0.074400
     10 H10         39.0270    50.7120    52.6090 hc       359 H7D       0.025700
     11 H11         40.2380    51.7070    51.7740 hc       359 H7D       0.025700
     12 C4          38.7190    52.8110    52.7370 c3       359 H7D      -0.065400
     13 H12         37.8320    52.5490    53.2740 hc       359 H7D       0.018700
     14 H13         39.5380    53.1060    53.3610 hc       359 H7D       0.018700
     15 C5          38.4010    54.0280    51.8770 c3       359 H7D      -0.072400
     16 H14         37.6120    53.7630    51.2060 hc       359 H7D       0.034700
     17 H15         38.1340    54.8140    52.5530 hc       359 H7D       0.034700
     18 C6          39.5720    54.5510    51.0520 c3       359 H7D      -0.067400
     19 H16         39.5460    55.6200    51.0320 hc       359 H7D       0.028700
     20 H17         40.4940    54.2270    51.4890 hc       359 H7D       0.028700
     21 C7          39.4620    54.0110    49.6270 c3       359 H7D      -0.112400
     22 H18         39.8160    54.7480    48.9380 hc       359 H7D       0.061700
     23 H19         38.4390    53.7820    49.4100 hc       359 H7D       0.061700
     24 C8          40.3060    52.7450    49.4960 c3       359 H7D       0.273500
     25 H20         40.9160    52.6540    50.3710 h1       359 H7D       0.035700
     26 N           41.1490    52.9010    48.2910 n3       359 H7D      -0.937100
     27 H           41.2420    53.8920    48.0680 hn       359 H7D       0.505800
     28 S           42.6160    52.2720    48.5650 s6       359 H7D       1.579800
     29 O2          42.8160    51.2480    47.5900 o        359 H7D      -0.673300
     30 O3          42.6290    51.7220    49.8920 o        359 H7D      -0.673300
     31 N1          43.8160    53.3490    48.4360 n3       359 H7D      -0.824500
     32 C12         44.1730    53.9710    49.7180 c3       359 H7D       0.232800
     33 H6          43.2980    54.2660    50.2580 h1       359 H7D       0.044450
     34 H7          44.7060    53.3090    50.3690 h1       359 H7D       0.044450
     35 C11         44.9940    55.1850    49.3050 c3       359 H7D      -0.084400
     36 H4          44.8440    55.9900    49.9930 hc       359 H7D       0.041200
     37 H5          46.0430    54.9730    49.2990 hc       359 H7D       0.041200
     38 C10         44.4860    55.5670    47.9210 c3       359 H7D      -0.084400
     39 H2          45.3010    55.6380    47.2310 hc       359 H7D       0.041200
     40 H3          43.9960    56.5190    47.9290 hc       359 H7D       0.041200
     41 C9          43.5360    54.4510    47.5040 c3       359 H7D       0.232800
     42 H21         43.7280    54.1490    46.4960 h1       359 H7D       0.044450
     43 H22         42.5120    54.7580    47.5400 h1       359 H7D       0.044450
@<TRIPOS>BOND
     1     1     2 1   
     2     2     3 1   
     3     2     4 1   
     4     4     5 1   
     5     4     6 1   
     6     4    24 1   
     7     6     7 1   
     8     6     8 1   
     9     6     9 1   
    10     9    10 1   
    11     9    11 1   
    12     9    12 1   
    13    12    13 1   
    14    12    14 1   
    15    12    15 1   
    16    15    16 1   
    17    15    17 1   
    18    15    18 1   
    19    18    19 1   
    20    18    20 1   
    21    18    21 1   
    22    21    22 1   
    23    21    23 1   
    24    21    24 1   
    25    24    25 1   
    26    24    26 1   
    27    26    27 1   
    28    26    28 1   
    29    28    29 2   
    30    28    30 2   
    31    28    31 1   
    32    31    32 1   
    33    31    41 1   
    34    32    33 1   
    35    32    34 1   
    36    32    35 1   
    37    35    36 1   
    38    35    37 1   
    39    35    38 1   
    40    38    39 1   
    41    38    40 1   
    42    38    41 1   
    43    41    42 1   
    44    41    43 1   
@<TRIPOS>SUBSTRUCTURE
     1 H7D         1 TEMP              0 ****  ****    0 ROOT
