@<TRIPOS>MOLECULE
K32
   16    17     1     0     0
SMALL
bcc


@<TRIPOS>ATOM
      1 BR2         34.2780    39.2710    54.8320 br       326 K32      -0.023100
      2 C2          35.7720    40.3970    55.0540 ca       326 K32       0.009100
      3 C5          36.9540    39.8630    55.5720 ca       326 K32      -0.016900
      4 BR1         37.0830    38.0350    56.0640 br       326 K32      -0.033100
      5 C7          38.0780    40.6500    55.7390 ca       326 K32       0.045600
      6 N14         39.3050    40.3620    56.2020 n        326 K32      -0.453100
      7 H           39.6500    39.4980    56.5230 hn       326 K32       0.372500
      8 C13         39.9480    41.5340    56.1230 c        326 K32       0.803500
      9 O10         41.1800    41.6290    56.4950 o        326 K32      -0.604500
     10 N6          39.2250    42.5710    55.6460 n        326 K32      -0.453100
     11 H1          39.5040    43.5060    55.5150 hn       326 K32       0.372500
     12 C8          38.0210    42.0050    55.3940 ca       326 K32       0.045600
     13 C4          36.8310    42.5130    54.8780 ca       326 K32      -0.016900
     14 BR3         36.8160    44.3300    54.4540 br       326 K32      -0.033100
     15 C3          35.6830    41.7380    54.6890 ca       326 K32       0.009100
     16 BR4         34.0530    42.4700    53.9550 br       326 K32      -0.023100
@<TRIPOS>BOND
     1     1     2 1   
     2     2     3 ar  
     3     2    15 ar  
     4     3     4 1   
     5     3     5 ar  
     6     5     6 1   
     7     5    12 ar  
     8     6     7 1   
     9     6     8 1   
    10     8     9 2   
    11     8    10 1   
    12    10    11 1   
    13    10    12 1   
    14    12    13 ar  
    15    13    14 1   
    16    13    15 ar  
    17    15    16 1   
@<TRIPOS>SUBSTRUCTURE
     1 K32         1 TEMP              0 ****  ****    0 ROOT
