@<TRIPOS>MOLECULE
./divided-files/2oxd/LIGAND.pdb
 14 15 0 0 0
SMALL
GASTEIGER

@<TRIPOS>ATOM
      1 Br2        34.2780   39.2710   54.8320 Br    326  K32326     -0.0479
      2  C2        35.7720   40.3970   55.0540 C.ar  326  K32326      0.0490
      3  C5        36.9540   39.8630   55.5720 C.ar  326  K32326      0.0605
      4 Br1        37.0830   38.0350   56.0640 Br    326  K32326     -0.0469
      5  C7        38.0780   40.6500   55.7390 C.ar  326  K32326      0.1109
      6  N14       39.3050   40.3620   56.2020 N.ar  326  K32326     -0.1888
      7  C13       39.9480   41.5340   56.1230 C.ar  326  K32326      0.3689
      8  O10       41.1800   41.6290   56.4950 O.2   326  K32326     -0.2426
      9  N6        39.2250   42.5710   55.6460 N.ar  326  K32326     -0.1888
     10  C8        38.0210   42.0050   55.3940 C.ar  326  K32326      0.1109
     11  C4        36.8310   42.5130   54.8780 C.ar  326  K32326      0.0605
     12 Br3        36.8160   44.3300   54.4540 Br    326  K32326     -0.0469
     13  C3        35.6830   41.7380   54.6890 C.ar  326  K32326      0.0490
     14 Br4        34.0530   42.4700   53.9550 Br    326  K32326     -0.0479
@<TRIPOS>BOND
     1    14    13    1
     2    12    11    1
     3    13    11   ar
     4    13     2   ar
     5     1     2    1
     6    11    10   ar
     7     2     3   ar
     8    10     9   ar
     9    10     5   ar
    10     3     5   ar
    11     3     4    1
    12     9     7   ar
    13     5     6   ar
    14     7     6   ar
    15     7     8    2
