@<TRIPOS>MOLECULE
./divided-files/5dit/LIGAND.pdb
 106 110 0 0 0
SMALL
GASTEIGER

@<TRIPOS>ATOM
      1 C          30.7140   38.5430   26.0590 C.3     1  UNL1       -0.0494
      2 C          30.7690   38.0980   24.5950 C.3     1  UNL1       -0.0528
      3 C          30.6610   36.5860   24.5880 C.3     1  UNL1       -0.0530
      4 C          31.9110   35.9840   25.2090 C.3     1  UNL1       -0.0528
      5 C          32.1700   36.5520   26.6080 C.3     1  UNL1       -0.0494
      6 C          32.1070   38.0870   26.6200 C.3     1  UNL1       -0.0276
      7 C          32.4400   38.6340   28.0470 C.3     1  UNL1        0.0642
      8 C          32.3640   40.1810   28.0730 C.3     1  UNL1        0.0638
      9 C          32.9990   40.7370   29.3440 C.3     1  UNL1       -0.0382
     10 O          33.0780   40.7300   26.9610 O.3     1  UNL1       -0.3913
     11 C          31.5170   38.0370   29.1550 C.2     1  UNL1        0.2221
     12 O          30.2900   38.1540   29.0380 O.2     1  UNL1       -0.2752
     13 N          32.0880   37.3960   30.2280 N.am    1  UNL1       -0.2877
     14 C          33.5770   37.2570   30.4710 C.3     1  UNL1        0.0155
     15 C          34.0030   35.9670   31.0660 C.3     1  UNL1       -0.0371
     16 C          33.1260   35.7400   32.2790 C.3     1  UNL1       -0.0494
     17 C          31.6730   35.5750   31.8770 C.3     1  UNL1       -0.0238
     18 C          31.1460   36.8720   31.2720 C.3     1  UNL1        0.1229
     19 C          30.9120   37.8540   32.2750 C.2     1  UNL1        0.3284
     20 O          29.9120   37.8050   33.0000 O.2     1  UNL1       -0.2487
     21 O          31.8670   38.8340   32.3650 O.3     1  UNL1       -0.4553
     22 C          31.6580   39.8780   33.3410 C.3     1  UNL1        0.1285
     23 C          30.7730   40.9340   32.6940 C.3     1  UNL1       -0.0074
     24 C          30.2140   41.9050   33.7020 C.3     1  UNL1       -0.0239
     25 C          29.1070   41.4170   34.4560 C.ar    1  UNL1       -0.0435
     26 C          27.8040   41.2690   33.9380 C.ar    1  UNL1       -0.0131
     27 C          26.7580   40.8200   34.7610 C.ar    1  UNL1        0.1617
     28 C          27.0230   40.5160   36.1040 C.ar    1  UNL1        0.1615
     29 C          28.3060   40.6870   36.6120 C.ar    1  UNL1       -0.0160
     30 C          29.3300   41.1400   35.8010 C.ar    1  UNL1       -0.0549
     31 O          26.0370   40.0840   36.9610 O.3     1  UNL1       -0.4915
     32 C          24.8840   39.3340   36.5430 C.3     1  UNL1        0.0790
     33 O          25.4740   40.6210   34.3430 O.3     1  UNL1       -0.4914
     34 C          24.9530   41.5050   33.3360 C.3     1  UNL1        0.0790
     35 C          32.9620   40.2770   33.6900 C.ar    1  UNL1       -0.0038
     36 C          33.8740   40.8020   32.7770 C.ar    1  UNL1       -0.0549
     37 C          35.1690   41.1440   33.1740 C.ar    1  UNL1       -0.0579
     38 C          35.5760   40.9360   34.4930 C.ar    1  UNL1       -0.0199
     39 C          33.3920   40.0530   34.9860 C.ar    1  UNL1       -0.0133
     40 C          34.6720   40.3780   35.3940 C.ar    1  UNL1        0.1212
     41 O          34.9430   40.1500   36.7050 O.3     1  UNL1       -0.4867
     42 C          36.2540   39.8020   37.0660 C.3     1  UNL1        0.1291
     43 C          36.1060   39.1070   38.4130 C.3     1  UNL1        0.0033
     44 N          36.3160   40.0200   39.5740 N.4     1  UNL1        0.2409
     45 C          35.4700   41.2300   39.5590 C.3     1  UNL1       -0.0077
     46 C          35.8140   42.1610   40.7210 C.3     1  UNL1        0.0878
     47 O          37.2480   42.4090   40.7330 O.3     1  UNL1       -0.3693
     48 C          37.9430   41.2230   41.0380 C.3     1  UNL1        0.0878
     49 C          37.7400   40.3490   39.7930 C.3     1  UNL1       -0.0077
     50 H          29.9133   38.0589   26.5781 H       1  UNL1        0.0268
     51 H          30.5362   39.5918   26.1742 H       1  UNL1        0.0268
     52 H          29.9547   38.5272   24.0495 H       1  UNL1        0.0265
     53 H          31.6789   38.4183   24.1321 H       1  UNL1        0.0265
     54 H          30.5620   36.2405   23.5802 H       1  UNL1        0.0265
     55 H          29.8034   36.2878   25.1541 H       1  UNL1        0.0265
     56 H          32.7508   36.2035   24.5833 H       1  UNL1        0.0265
     57 H          31.7680   34.9272   25.2961 H       1  UNL1        0.0265
     58 H          33.1412   36.2425   26.9333 H       1  UNL1        0.0268
     59 H          31.4095   36.1823   27.2636 H       1  UNL1        0.0268
     60 H          32.8514   38.5086   25.9773 H       1  UNL1        0.0309
     61 H          33.4400   38.3218   28.2646 H       1  UNL1        0.0422
     62 H          31.3292   40.4499   28.0309 H       1  UNL1        0.0598
     63 H          34.0327   40.4625   29.3758 H       1  UNL1        0.0255
     64 H          32.4967   40.3350   30.1990 H       1  UNL1        0.0255
     65 H          32.9129   41.8035   29.3486 H       1  UNL1        0.0255
     66 H          34.0120   40.4746   27.0186 H       1  UNL1        0.2098
     67 H          33.8790   38.0421   31.1323 H       1  UNL1        0.0465
     68 H          34.0405   37.3067   29.5079 H       1  UNL1        0.0465
     69 H          35.0312   36.0166   31.3578 H       1  UNL1        0.0280
     70 H          33.9043   35.1664   30.3630 H       1  UNL1        0.0280
     71 H          33.2139   36.5798   32.9362 H       1  UNL1        0.0266
     72 H          33.4475   34.8448   32.7690 H       1  UNL1        0.0266
     73 H          31.5926   34.7894   31.1550 H       1  UNL1        0.0288
     74 H          31.0950   35.3330   32.7443 H       1  UNL1        0.0288
     75 H          30.2098   36.6534   30.8023 H       1  UNL1        0.0616
     76 H          31.1422   39.6100   34.2394 H       1  UNL1        0.0785
     77 H          29.9600   40.4456   32.1986 H       1  UNL1        0.0307
     78 H          31.3742   41.4877   32.0035 H       1  UNL1        0.0307
     79 H          29.8981   42.7828   33.1781 H       1  UNL1        0.0314
     80 H          30.9979   42.0909   34.4061 H       1  UNL1        0.0314
     81 H          27.6176   41.4920   32.9478 H       1  UNL1        0.0658
     82 H          28.4957   40.4738   37.6038 H       1  UNL1        0.0655
     83 H          30.2727   41.2745   36.1988 H       1  UNL1        0.0621
     84 H          24.2705   39.1198   37.3931 H       1  UNL1        0.0660
     85 H          25.1997   38.4171   36.0908 H       1  UNL1        0.0660
     86 H          24.3237   39.9069   35.8340 H       1  UNL1        0.0660
     87 H          23.9437   41.2316   33.1090 H       1  UNL1        0.0660
     88 H          25.5505   41.4297   32.4516 H       1  UNL1        0.0660
     89 H          24.9770   42.5116   33.6980 H       1  UNL1        0.0660
     90 H          33.5892   40.9400   31.7947 H       1  UNL1        0.0621
     91 H          35.8263   41.5514   32.4906 H       1  UNL1        0.0619
     92 H          36.5293   41.1910   34.7951 H       1  UNL1        0.0654
     93 H          32.7397   39.6321   35.6660 H       1  UNL1        0.0658
     94 H          36.8660   40.6750   37.1560 H       1  UNL1        0.0751
     95 H          36.7255   39.1782   36.3356 H       1  UNL1        0.0751
     96 H          36.8250   38.3165   38.4682 H       1  UNL1        0.0848
     97 H          35.1016   38.7432   38.4734 H       1  UNL1        0.0848
     98 H          36.0017   39.4788   40.3794 H       1  UNL1        0.2036
     99 H          34.4434   40.9388   39.6376 H       1  UNL1        0.0837
    100 H          35.6452   41.7539   38.6426 H       1  UNL1        0.0837
    101 H          35.5231   41.7033   41.6434 H       1  UNL1        0.0613
    102 H          35.2919   43.0875   40.6035 H       1  UNL1        0.0613
    103 H          38.9821   41.4209   41.1995 H       1  UNL1        0.0613
    104 H          37.5904   40.7555   41.9336 H       1  UNL1        0.0613
    105 H          38.1085   40.8755   38.9375 H       1  UNL1        0.0837
    106 H          38.2719   39.4326   39.9421 H       1  UNL1        0.0837
@<TRIPOS>UNITY_ATOM_ATTR
44 1
charge 1
@<TRIPOS>BOND
     1     3     2    1
     2     3     4    1
     3     2     1    1
     4     4     5    1
     5     1     6    1
     6     5     6    1
     7     6     7    1
     8    10     8    1
     9     7     8    1
    10     7    11    1
    11     8     9    1
    12    12    11    2
    13    11    13   am
    14    13    14    1
    15    13    18    1
    16    14    15    1
    17    15    16    1
    18    18    17    1
    19    18    19    1
    20    17    16    1
    21    19    21    1
    22    19    20    2
    23    21    22    1
    24    23    22    1
    25    23    24    1
    26    36    37   ar
    27    36    35   ar
    28    37    38   ar
    29    34    33    1
    30    22    35    1
    31    35    39   ar
    32    24    25    1
    33    26    25   ar
    34    26    27   ar
    35    33    27    1
    36    25    30   ar
    37    38    40   ar
    38    27    28   ar
    39    39    40   ar
    40    40    41    1
    41    30    29   ar
    42    28    29   ar
    43    28    31    1
    44    32    31    1
    45    41    42    1
    46    42    43    1
    47    43    44    1
    48    45    44    1
    49    45    46    1
    50    44    49    1
    51    49    48    1
    52    46    47    1
    53    47    48    1
    54     1    50    1
    55     1    51    1
    56     2    52    1
    57     2    53    1
    58     3    54    1
    59     3    55    1
    60     4    56    1
    61     4    57    1
    62     5    58    1
    63     5    59    1
    64     6    60    1
    65     7    61    1
    66     8    62    1
    67     9    63    1
    68     9    64    1
    69     9    65    1
    70    10    66    1
    71    14    67    1
    72    14    68    1
    73    15    69    1
    74    15    70    1
    75    16    71    1
    76    16    72    1
    77    17    73    1
    78    17    74    1
    79    18    75    1
    80    22    76    1
    81    23    77    1
    82    23    78    1
    83    24    79    1
    84    24    80    1
    85    26    81    1
    86    29    82    1
    87    30    83    1
    88    32    84    1
    89    32    85    1
    90    32    86    1
    91    34    87    1
    92    34    88    1
    93    34    89    1
    94    36    90    1
    95    37    91    1
    96    38    92    1
    97    39    93    1
    98    42    94    1
    99    42    95    1
   100    43    96    1
   101    43    97    1
   102    44    98    1
   103    45    99    1
   104    45   100    1
   105    46   101    1
   106    46   102    1
   107    48   103    1
   108    48   104    1
   109    49   105    1
   110    49   106    1
