@<TRIPOS>MOLECULE
./divided-files/5dit/LIGAND.pdb
 49 53 0 0 0
SMALL
GASTEIGER

@<TRIPOS>ATOM
      1  CAW       30.7140   38.5430   26.0590 C.3   129  5B8129      0.0006
      2  CAO       30.7690   38.0980   24.5950 C.3   129  5B8129      0.0000
      3  CAN       30.6610   36.5860   24.5880 C.3   129  5B8129      0.0000
      4  CAP       31.9110   35.9840   25.2090 C.3   129  5B8129      0.0000
      5  CAX       32.1700   36.5520   26.6080 C.3   129  5B8129      0.0006
      6  CBS       32.1070   38.0870   26.6200 C.3   129  5B8129      0.0111
      7  CBU       32.4400   38.6340   28.0470 C.3   129  5B8129      0.1070
      8  CBQ       32.3640   40.1810   28.0730 C.3   129  5B8129      0.1606
      9  CAC       32.9990   40.7370   29.3440 C.3   129  5B8129      0.0360
     10  OAF       33.0780   40.7300   26.9610 O.3   129  5B8129     -0.2226
     11  CBK       31.5170   38.0370   29.1550 C.2   129  5B8129      0.2280
     12  OAE       30.2900   38.1540   29.0380 O.2   129  5B8129     -0.2748
     13  N         32.0880   37.3960   30.2280 N.am  129  5B8129     -0.2714
     14  CBA       33.5770   37.2570   30.4710 C.3   129  5B8129      0.0939
     15  CAR       34.0030   35.9670   31.0660 C.3   129  5B8129      0.0216
     16  CAQ       33.1260   35.7400   32.2790 C.3   129  5B8129      0.0040
     17  CB        31.6730   35.5750   31.8770 C.3   129  5B8129      0.0314
     18  CA        31.1460   36.8720   31.2720 C.3   129  5B8129      0.1746
     19  C         30.9120   37.8540   32.2750 C.2   129  5B8129      0.3354
     20  O         29.9120   37.8050   33.0000 O.2   129  5B8129     -0.2483
     21  OBI       31.8670   38.8340   32.3650 O.3   129  5B8129     -0.4465
     22  CBR       31.6580   39.8780   33.3410 C.3   129  5B8129      0.1916
     23  CAZ       30.7730   40.9340   32.6940 C.3   129  5B8129      0.0530
     24  CAV       30.2140   41.9050   33.7020 C.3   129  5B8129      0.0305
     25  CBL       29.1070   41.4170   34.4560 C.ar  129  5B8129     -0.0188
     26  CAM       27.8040   41.2690   33.9380 C.ar  129  5B8129      0.0358
     27  CBP       26.7580   40.8200   34.7610 C.ar  129  5B8129      0.1721
     28  CBO       27.0230   40.5160   36.1040 C.ar  129  5B8129      0.1724
     29  CAK       28.3060   40.6870   36.6120 C.ar  129  5B8129      0.0397
     30  CAJ       29.3300   41.1400   35.8010 C.ar  129  5B8129     -0.0009
     31  OBE       26.0370   40.0840   36.9610 O.3   129  5B8129     -0.4684
     32  CAA       24.8840   39.3340   36.5430 C.3   129  5B8129      0.2526
     33  OBF       25.4740   40.6210   34.3430 O.3   129  5B8129     -0.4684
     34  CAB       24.9530   41.5050   33.3360 C.3   129  5B8129      0.2526
     35  CBN       32.9620   40.2770   33.6900 C.ar  129  5B8129      0.0203
     36  CAI       33.8740   40.8020   32.7770 C.ar  129  5B8129     -0.0006
     37  CAG       35.1690   41.1440   33.1740 C.ar  129  5B8129      0.0029
     38  CAH       35.5760   40.9360   34.4930 C.ar  129  5B8129      0.0369
     39  CAL       33.3920   40.0530   34.9860 C.ar  129  5B8129      0.0361
     40  CBM       34.6720   40.3780   35.3940 C.ar  129  5B8129      0.1384
     41  OBH       34.9430   40.1500   36.7050 O.3   129  5B8129     -0.4740
     42  CAU       36.2540   39.8020   37.0660 C.3   129  5B8129      0.2226
     43  CBD       36.1060   39.1070   38.4130 C.3   129  5B8129      0.1202
     44  NBV       36.3160   40.0200   39.5740 N.4   129  5B8129     -0.2653
     45  CBB       35.4700   41.2300   39.5590 C.3   129  5B8129      0.1047
     46  CAS       35.8140   42.1610   40.7210 C.3   129  5B8129      0.1595
     47  OBG       37.2480   42.4090   40.7330 O.3   129  5B8129     -0.3508
     48  CAT       37.9430   41.2230   41.0380 C.3   129  5B8129      0.1595
     49  CBC       37.7400   40.3490   39.7930 C.3   129  5B8129      0.1047
@<TRIPOS>BOND
     1     3     2    1
     2     3     4    1
     3     2     1    1
     4     4     5    1
     5     1     6    1
     6     5     6    1
     7     6     7    1
     8    10     8    1
     9     7     8    1
    10     7    11    1
    11     8     9    1
    12    12    11    2
    13    11    13   am
    14    13    14    1
    15    13    18    1
    16    14    15    1
    17    15    16    1
    18    18    17    1
    19    18    19    1
    20    17    16    1
    21    19    21    1
    22    19    20    2
    23    21    22    1
    24    23    22    1
    25    23    24    1
    26    36    37   ar
    27    36    35   ar
    28    37    38   ar
    29    34    33    1
    30    22    35    1
    31    35    39   ar
    32    24    25    1
    33    26    25   ar
    34    26    27   ar
    35    33    27    1
    36    25    30   ar
    37    38    40   ar
    38    27    28   ar
    39    39    40   ar
    40    40    41    1
    41    30    29   ar
    42    28    29   ar
    43    28    31    1
    44    32    31    1
    45    41    42    1
    46    42    43    1
    47    43    44    1
    48    45    44    1
    49    45    46    1
    50    44    49    1
    51    49    48    1
    52    46    47    1
    53    47    48    1
