@<TRIPOS>MOLECULE
./divided-files/2r9w/LIGAND.pdb
 42 45 0 0 0
SMALL
GASTEIGER

@<TRIPOS>ATOM
      1 CD2        46.2530   53.1110   54.0040 C.ar  359  23C359359   -0.0146
      2 CAN        44.8940   53.2630   53.7450 C.ar  359  23C359359   -0.0538
      3 CAH        44.1640   54.2530   54.3630 C.ar  359  23C359359   -0.0612
      4 CAG        44.7640   55.1140   55.2660 C.ar  359  23C359359   -0.0612
      5 CAL        46.1180   54.9760   55.5510 C.ar  359  23C359359   -0.0540
      6 CAX        46.8550   53.9770   54.9200 C.ar  359  23C359359   -0.0176
      7 CAM        48.2030   53.8520   55.2180 C.ar  359  23C359359   -0.0540
      8 CAI        48.9370   52.8590   54.5900 C.ar  359  23C359359   -0.0609
      9 CD1        48.3410   52.0060   53.6800 C.ar  359  23C359359   -0.0579
     10 CG         46.9950   52.1030   53.3790 C.ar  359  23C359359   -0.0375
     11 CB         46.4470   51.1080   52.3420 C.3   359  23C359359   -0.0027
     12 CA         46.2780   51.8680   50.9990 C.3   359  23C359359    0.0773
     13 C          45.6340   51.0090   49.8730 C.2   359  23C359359    0.0629
     14 OXT        44.3790   50.9570   49.8830 O.co2 359  23C359359   -0.5479
     15 O          46.3720   50.4660   49.0380 O.co2 359  23C359359   -0.5479
     16 N          47.5340   52.5550   50.6120 N.am  359  23C359359   -0.2251
     17 CAW        47.5910   53.8770   50.4210 C.2   359  23C359359    0.2544
     18 OAD        46.6240   54.6340   50.4950 O.2   359  23C359359   -0.2695
     19 CBA        48.8950   54.2580   50.1060 C.ar  359  23C359359    0.0500
     20 CAP        49.4930   55.4840   49.8060 C.ar  359  23C359359   -0.0400
     21 CAT        50.8560   55.5360   49.5170 C.ar  359  23C359359   -0.0019
     22 CAR        51.5550   56.8400   49.1640 C.2   359  23C359359    0.0717
     23 OAE        50.9030   57.7200   48.5640 O.co2 359  23C359359   -0.5446
     24 OAA        52.7690   56.9310   49.4470 O.co2 359  23C359359   -0.5446
     25 CAK        51.6020   54.3630   49.5290 C.ar  359  23C359359   -0.0521
     26 CAO        51.0000   53.1560   49.8300 C.ar  359  23C359359   -0.0483
     27 CAZ        49.6420   53.0860   50.1200 C.ar  359  23C359359    0.0495
     28 CAV        48.7670   52.0470   50.4490 C.2   359  23C359359    0.2544
     29 OAC        49.0720   50.8520   50.5590 O.2   359  23C359359   -0.2695
     30 H          44.4276   52.6253   53.0811 H     359  23C359359    0.0624
     31 H          43.1591   54.3544   54.1510 H     359  23C359359    0.0618
     32 H          44.2097   55.8538   55.7248 H     359  23C359359    0.0618
     33 H          46.5738   55.6099   56.2259 H     359  23C359359    0.0624
     34 H          48.6520   54.4876   55.8959 H     359  23C359359    0.0624
     35 H          49.9411   52.7548   54.8042 H     359  23C359359    0.0618
     36 H          48.9121   51.2824   53.2161 H     359  23C359359    0.0620
     37 H          47.1336   50.2969   52.2174 H     359  23C359359    0.0335
     38 H          45.5088   50.7087   52.6663 H     359  23C359359    0.0335
     39 H          45.5547   52.6402   51.1586 H     359  23C359359    0.0570
     40 H          48.9284   56.3478   49.7983 H     359  23C359359    0.0632
     41 H          52.6105   54.3937   49.3120 H     359  23C359359    0.0624
     42 H          51.5669   52.2937   49.8397 H     359  23C359359    0.0625
@<TRIPOS>UNITY_ATOM_ATTR
14 1
charge -1
23 1
charge -1
@<TRIPOS>BOND
     1    23    22   ar
     2    15    13   ar
     3    22    24   ar
     4    22    21    1
     5    21    25   ar
     6    21    20   ar
     7    25    26   ar
     8    20    19   ar
     9    26    27   ar
    10    13    14   ar
    11    13    12    1
    12    19    27   ar
    13    19    17    1
    14    27    28    1
    15    17    18    2
    16    17    16   am
    17    28    29    2
    18    28    16   am
    19    16    12    1
    20    12    11    1
    21    11    10    1
    22    10     9   ar
    23    10     1   ar
    24     9     8   ar
    25     2     1   ar
    26     2     3   ar
    27     1     6   ar
    28     3     4   ar
    29     8     7   ar
    30     6     7   ar
    31     6     5   ar
    32     4     5   ar
    33     2    30    1
    34     3    31    1
    35     4    32    1
    36     5    33    1
    37     7    34    1
    38     8    35    1
    39     9    36    1
    40    11    37    1
    41    11    38    1
    42    12    39    1
    43    20    40    1
    44    25    41    1
    45    26    42    1
