@<TRIPOS>MOLECULE
./divided-files/2r9w/LIGAND.pdb
 29 32 0 0 0
SMALL
GASTEIGER

@<TRIPOS>ATOM
      1  CD2       46.2530   53.1110   54.0040 C.ar  359  23C359     -0.0039
      2  CAN       44.8940   53.2630   53.7450 C.ar  359  23C359     -0.0003
      3  CAH       44.1640   54.2530   54.3630 C.ar  359  23C359     -0.0000
      4  CAG       44.7640   55.1140   55.2660 C.ar  359  23C359     -0.0000
      5  CAL       46.1180   54.9760   55.5510 C.ar  359  23C359     -0.0000
      6  CAX       46.8550   53.9770   54.9200 C.ar  359  23C359     -0.0003
      7  CAM       48.2030   53.8520   55.2180 C.ar  359  23C359     -0.0000
      8  CAI       48.9370   52.8590   54.5900 C.ar  359  23C359     -0.0003
      9  CD1       48.3410   52.0060   53.6800 C.ar  359  23C359     -0.0042
     10  CG        46.9950   52.1030   53.3790 C.ar  359  23C359     -0.0199
     11  CB        46.4470   51.1080   52.3420 C.3   359  23C359      0.0582
     12  CA        46.2780   51.8680   50.9990 C.3   359  23C359      0.1900
     13  C         45.6340   51.0090   49.8730 C.2   359  23C359      0.3832
     14  OXT       44.3790   50.9570   49.8830 O.co2 359  23C359     -0.2438
     15  O         46.3720   50.4660   49.0380 O.co2 359  23C359     -0.2438
     16  N         47.5340   52.5550   50.6120 N.am  359  23C359     -0.2133
     17  CAW       47.5910   53.8770   50.4210 C.2   359  23C359      0.2555
     18  OAD       46.6240   54.6340   50.4950 O.2   359  23C359     -0.2695
     19  CBA       48.8950   54.2580   50.1060 C.ar  359  23C359      0.0586
     20  CAP       49.4930   55.4840   49.8060 C.ar  359  23C359      0.0112
     21  CAT       50.8560   55.5360   49.5170 C.ar  359  23C359      0.0799
     22  CAR       51.5550   56.8400   49.1640 C.2   359  23C359      0.3878
     23  OAE       50.9030   57.7200   48.5640 O.co2 359  23C359     -0.2406
     24  OAA       52.7690   56.9310   49.4470 O.co2 359  23C359     -0.2406
     25  CAK       51.6020   54.3630   49.5290 C.ar  359  23C359      0.0067
     26  CAO       51.0000   53.1560   49.8300 C.ar  359  23C359      0.0049
     27  CAZ       49.6420   53.0860   50.1200 C.ar  359  23C359      0.0584
     28  CAV       48.7670   52.0470   50.4490 C.2   359  23C359      0.2555
     29  OAC       49.0720   50.8520   50.5590 O.2   359  23C359     -0.2695
@<TRIPOS>BOND
     1    23    22   ar
     2    15    13   ar
     3    22    24   ar
     4    22    21    1
     5    21    25   ar
     6    21    20   ar
     7    25    26   ar
     8    20    19   ar
     9    26    27   ar
    10    13    14   ar
    11    13    12    1
    12    19    27   ar
    13    19    17    1
    14    27    28    1
    15    17    18    2
    16    17    16   am
    17    28    29    2
    18    28    16   am
    19    16    12    1
    20    12    11    1
    21    11    10    1
    22    10     9   ar
    23    10     1   ar
    24     9     8   ar
    25     2     1   ar
    26     2     3   ar
    27     1     6   ar
    28     3     4   ar
    29     8     7   ar
    30     6     7   ar
    31     6     5   ar
    32     4     5   ar
