@<TRIPOS>MOLECULE
LIG
   43    46     1     0     0
SMALL
bcc


@<TRIPOS>ATOM
      1 CAE         37.4580    42.3660    39.5890 ca       285 LIG      -0.109000
      2 H4          36.7560    41.6090    39.5930 ha       285 LIG       0.133500
      3 CAC         37.0490    43.6500    39.9480 ca       285 LIG      -0.125500
      4 H2          36.0610    43.8260    40.1890 ha       285 LIG       0.143500
      5 CAB         37.9700    44.6980    39.9800 ca       285 LIG      -0.105000
      6 H1          37.6860    45.6570    40.2350 ha       285 LIG       0.146000
      7 CAD         39.2900    44.3940    39.6520 ca       285 LIG      -0.125500
      8 H3          40.0020    45.1400    39.6920 ha       285 LIG       0.143500
      9 CAF         39.6750    43.1060    39.2720 ca       285 LIG      -0.109000
     10 H5          40.6590    42.9320    39.0160 ha       285 LIG       0.133500
     11 CAP         38.7680    42.0530    39.2280 cp       285 LIG      -0.076000
     12 CAQ         39.1450    40.7680    38.8540 cp       285 LIG       0.020000
     13 CAH         38.2550    39.6950    38.8300 ca       285 LIG      -0.118500
     14 CAJ         38.6510    38.4110    38.4470 ca       285 LIG      -0.112000
     15 H9          37.9490    37.6560    38.4210 ha       285 LIG       0.135000
     16 H7          37.2730    39.8540    39.1040 ha       285 LIG       0.155500
     17 CAG         40.4510    40.4720    38.4710 ca       285 LIG      -0.118500
     18 H6          41.1450    41.2350    38.4580 ha       285 LIG       0.155500
     19 CAI         40.8620    39.1930    38.1050 ca       285 LIG      -0.112000
     20 H8          41.8450    39.0360    37.8330 ha       285 LIG       0.135000
     21 CAR         39.9720    38.1220    38.0980 ca       285 LIG      -0.179300
     22 CAU         40.3850    36.7340    37.6820 c3       285 LIG       0.220100
     23 OAA         39.7600    36.4900    36.4180 oh       285 LIG      -0.605800
     24 H           40.0390    37.1680    35.7830 ho       285 LIG       0.444000
     25 CAO         41.8940    36.5670    37.5110 c3       285 LIG       0.099800
     26 H18         42.1360    36.5620    36.4690 hx       285 LIG       0.114200
     27 H19         42.3970    37.3780    37.9940 hx       285 LIG       0.114200
     28 NAT         42.3280    35.2900    38.1220 n4       285 LIG      -0.685400
     29 H21         43.3180    35.1700    37.9100 hn       285 LIG       0.453800
     30 CAM         42.1610    35.3130    39.5870 c3       285 LIG       0.117800
     31 H14         42.8140    36.0500    40.0060 hx       285 LIG       0.100950
     32 H15         42.3980    34.3470    39.9810 hx       285 LIG       0.100950
     33 CAK         40.7180    35.6570    39.9460 c3       285 LIG      -0.096900
     34 H10         40.6740    36.6260    40.3980 hc       285 LIG       0.091950
     35 H11         40.3210    34.9500    40.6440 hc       285 LIG       0.091950
     36 CAS         39.9190    35.6470    38.6490 c3       285 LIG      -0.091700
     37 H20         38.8830    35.8590    38.8120 hc       285 LIG       0.109700
     38 CAL         40.1390    34.2490    38.0820 c3       285 LIG      -0.096900
     39 H12         39.9910    33.5200    38.8510 hc       285 LIG       0.091950
     40 H13         39.4450    34.0600    37.2890 hc       285 LIG       0.091950
     41 CAN         41.5700    34.1600    37.5560 c3       285 LIG       0.117800
     42 H16         42.0140    33.2350    37.8610 hx       285 LIG       0.100950
     43 H17         41.5790    34.2020    36.4860 hx       285 LIG       0.100950
@<TRIPOS>BOND
     1     1     2 1   
     2     1     3 ar  
     3     1    11 ar  
     4     3     4 1   
     5     3     5 ar  
     6     5     6 1   
     7     5     7 ar  
     8     7     8 1   
     9     7     9 ar  
    10     9    10 1   
    11     9    11 ar  
    12    11    12 1   
    13    12    13 ar  
    14    12    17 ar  
    15    13    14 ar  
    16    13    16 1   
    17    14    15 1   
    18    14    21 ar  
    19    17    18 1   
    20    17    19 ar  
    21    19    20 1   
    22    19    21 ar  
    23    21    22 1   
    24    22    23 1   
    25    22    25 1   
    26    22    36 1   
    27    23    24 1   
    28    25    26 1   
    29    25    27 1   
    30    25    28 1   
    31    28    29 1   
    32    28    30 1   
    33    28    41 1   
    34    30    31 1   
    35    30    32 1   
    36    30    33 1   
    37    33    34 1   
    38    33    35 1   
    39    33    36 1   
    40    36    37 1   
    41    36    38 1   
    42    38    39 1   
    43    38    40 1   
    44    38    41 1   
    45    41    42 1   
    46    41    43 1   
@<TRIPOS>SUBSTRUCTURE
     1 LIG         1 TEMP              0 ****  ****    0 ROOT
