@<TRIPOS>MOLECULE
./divided-files/3p5o/LIGAND.pdb
 52 55 0 0 0
SMALL
GASTEIGER

@<TRIPOS>ATOM
      1 C8         36.7060   43.6410   46.9030 C.ar  128  EAM128128   -0.0512
      2 C9         37.6710   44.5330   47.3300 C.ar  128  EAM128128   -0.0428
      3 C10        37.2880   45.7660   47.8290 C.ar  128  EAM128128    0.0410
      4 Cl         38.5150   46.8900   48.3400 Cl    128  EAM128128   -0.0835
      5 C11        35.9450   46.1200   47.9230 C.ar  128  EAM128128   -0.0428
      6 C12        34.9750   45.2120   47.4960 C.ar  128  EAM128128   -0.0512
      7 C7         35.3460   43.9500   47.0150 C.ar  128  EAM128128    0.0007
      8 C6         34.3360   42.9820   46.4930 C.2   128  EAM128128    0.0756
      9 N2         33.2080   43.5040   46.1540 N.2   128  EAM128128   -0.2711
     10 C5         32.1140   42.6300   45.7150 C.3   128  EAM128128    0.1194
     11 C4         30.8580   43.5080   45.7350 C.3   128  EAM128128    0.0534
     12 C3         30.4970   43.9460   47.1450 C.2   128  EAM128128    0.2155
     13 O1         30.9040   43.3240   48.1180 O.2   128  EAM128128   -0.2757
     14 N1         29.7190   45.0220   47.2660 N.am  128  EAM128128   -0.3155
     15 C2         29.3190   45.5180   48.5770 C.3   128  EAM128128    0.0088
     16 C1         28.1420   46.4700   48.5140 C.3   128  EAM128128   -0.0495
     17 C22        32.4340   42.1400   44.3070 C.ar  128  EAM128128    0.1631
     18 N5         31.9270   42.4370   43.1350 N.ar  128  EAM128128   -0.1318
     19 N4         32.7000   41.7790   42.1660 N.ar  128  EAM128128   -0.1342
     20 C20        33.6480   41.1170   42.7840 C.ar  128  EAM128128    0.1349
     21 C21        34.6750   40.2900   42.1000 C.3   128  EAM128128   -0.0041
     22 N3         33.5300   41.3230   44.1420 N.ar  128  EAM128128   -0.2808
     23 C19        34.2530   40.7870   45.2540 C.ar  128  EAM128128    0.0589
     24 C13        34.7840   41.5690   46.2810 C.ar  128  EAM128128    0.0279
     25 C14        35.4640   40.9220   47.3280 C.ar  128  EAM128128   -0.0088
     26 C15        35.5380   39.5350   47.4210 C.ar  128  EAM128128    0.1208
     27 O2         36.1870   38.9820   48.5130 O.3   128  EAM128128   -0.4951
     28 C16        36.4990   37.5870   48.5230 C.3   128  EAM128128    0.0788
     29 C17        34.9470   38.7650   46.4190 C.ar  128  EAM128128   -0.0180
     30 C18        34.3020   39.3950   45.3590 C.ar  128  EAM128128   -0.0337
     31 H          36.9917   42.7364   46.4968 H     128  EAM128128    0.0625
     32 H          38.6705   44.2816   47.2772 H     128  EAM128128    0.0632
     33 H          35.6709   47.0397   48.3026 H     128  EAM128128    0.0632
     34 H          33.9771   45.4723   47.5349 H     128  EAM128128    0.0625
     35 H          31.9760   41.7695   46.3358 H     128  EAM128128    0.0631
     36 H          30.0406   42.9524   45.3251 H     128  EAM128128    0.0384
     37 H          31.0564   44.3851   45.1552 H     128  EAM128128    0.0384
     38 H          29.4096   45.4892   46.4565 H     128  EAM128128    0.1487
     39 H          30.1494   46.0305   49.0159 H     128  EAM128128    0.0459
     40 H          29.0178   44.6737   49.1612 H     128  EAM128128    0.0459
     41 H          28.4089   47.3293   47.9350 H     128  EAM128128    0.0245
     42 H          27.8771   46.7757   49.5046 H     128  EAM128128    0.0245
     43 H          27.3088   45.9774   48.0579 H     128  EAM128128    0.0245
     44 H          34.5115   40.3205   41.0430 H     128  EAM128128    0.0308
     45 H          34.6048   39.2788   42.4427 H     128  EAM128128    0.0308
     46 H          35.6485   40.6750   42.3216 H     128  EAM128128    0.0308
     47 H          35.9241   41.4952   48.0525 H     128  EAM128128    0.0661
     48 H          36.9953   37.3391   49.4379 H     128  EAM128128    0.0660
     49 H          37.1393   37.3588   47.6967 H     128  EAM128128    0.0660
     50 H          35.5959   37.0189   48.4419 H     128  EAM128128    0.0660
     51 H          34.9879   37.7348   46.4636 H     128  EAM128128    0.0655
     52 H          33.8485   38.8194   44.6323 H     128  EAM128128    0.0640
@<TRIPOS>BOND
     1    21    20    1
     2    19    20   ar
     3    19    18   ar
     4    20    22   ar
     5    18    17   ar
     6    22    17   ar
     7    22    23    1
     8    17    10    1
     9    23    30   ar
    10    23    24   ar
    11    30    29   ar
    12    10    11    1
    13    10     9    1
    14    11    12    1
    15     9     8    2
    16    24     8    1
    17    24    25   ar
    18    29    26   ar
    19     8     7    1
    20     1     7   ar
    21     1     2   ar
    22     7     6   ar
    23    12    14   am
    24    12    13    2
    25    14    15    1
    26    25    26   ar
    27     2     3   ar
    28    26    27    1
    29     6     5   ar
    30     3     5   ar
    31     3     4    1
    32    27    28    1
    33    16    15    1
    34     1    31    1
    35     2    32    1
    36     5    33    1
    37     6    34    1
    38    10    35    1
    39    11    36    1
    40    11    37    1
    41    14    38    1
    42    15    39    1
    43    15    40    1
    44    16    41    1
    45    16    42    1
    46    16    43    1
    47    21    44    1
    48    21    45    1
    49    21    46    1
    50    25    47    1
    51    28    48    1
    52    28    49    1
    53    28    50    1
    54    29    51    1
    55    30    52    1
