@<TRIPOS>MOLECULE
EAM
   52    55     1     0     0
SMALL
bcc


@<TRIPOS>ATOM
      1 C8          36.7060    43.6410    46.9030 ca       128 EAM      -0.091000
      2 H1          36.9920    42.7370    46.4980 ha       128 EAM       0.150000
      3 C9          37.6710    44.5330    47.3300 ca       128 EAM      -0.130500
      4 H           38.6700    44.2820    47.2780 ha       128 EAM       0.150500
      5 C10         37.2880    45.7660    47.8290 ca       128 EAM       0.027400
      6 CL          38.5150    46.8900    48.3400 cl       128 EAM      -0.090400
      7 C11         35.9450    46.1200    47.9230 ca       128 EAM      -0.130500
      8 H2          35.6710    47.0400    48.3020 ha       128 EAM       0.150500
      9 C12         34.9750    45.2120    47.4960 ca       128 EAM      -0.091000
     10 H3          33.9780    45.4730    47.5350 ha       128 EAM       0.150000
     11 C7          35.3460    43.9500    47.0150 ca       128 EAM      -0.140900
     12 C6          34.3360    42.9820    46.4930 ce       128 EAM       0.531500
     13 N2          33.2080    43.5040    46.1540 n2       128 EAM      -0.566900
     14 C5          32.1140    42.6300    45.7150 c3       128 EAM       0.113200
     15 C4          30.8580    43.5080    45.7350 c3       128 EAM      -0.127400
     16 C3          30.4970    43.9460    47.1450 c        128 EAM       0.668100
     17 O1          30.9040    43.3240    48.1180 o        128 EAM      -0.628100
     18 N1          29.7190    45.0220    47.2660 n        128 EAM      -0.568900
     19 C2          29.3190    45.5180    48.5770 c3       128 EAM       0.088000
     20 C1          28.1420    46.4700    48.5140 c3       128 EAM      -0.116100
     21 H19         27.2920    45.9600    48.1110 hc       128 EAM       0.040700
     22 H20         28.3890    47.3000    47.8860 hc       128 EAM       0.040700
     23 H21         27.9140    46.8210    49.4990 hc       128 EAM       0.040700
     24 H17         29.0490    44.6830    49.1900 h1       128 EAM       0.057200
     25 H18         30.1480    46.0590    48.9830 h1       128 EAM       0.057200
     26 H16         29.4090    45.4890    46.4570 hn       128 EAM       0.311500
     27 H14         31.0340    44.3770    45.1360 hc       128 EAM       0.086700
     28 H15         30.0430    42.9320    45.3470 hc       128 EAM       0.086700
     29 H13         31.9760    41.7690    46.3350 h1       128 EAM       0.099700
     30 C22         32.4340    42.1400    44.3070 cc       128 EAM       0.350800
     31 N5          31.9270    42.4370    43.1350 nd       128 EAM      -0.336000
     32 N4          32.7000    41.7790    42.1660 nd       128 EAM      -0.347000
     33 C20         33.6480    41.1170    42.7840 cc       128 EAM       0.379800
     34 C21         34.6750    40.2900    42.1000 c3       128 EAM      -0.123400
     35 H10         35.3280    39.8580    42.8290 hc       128 EAM       0.064033
     36 H11         35.2420    40.9050    41.4320 hc       128 EAM       0.064033
     37 H12         34.1940    39.5110    41.5460 hc       128 EAM       0.064033
     38 N3          33.5300    41.3230    44.1420 na       128 EAM      -0.259800
     39 C19         34.2530    40.7870    45.2540 ca       128 EAM      -0.014200
     40 C13         34.7840    41.5690    46.2810 ca       128 EAM      -0.149900
     41 C14         35.4640    40.9220    47.3280 ca       128 EAM      -0.114000
     42 H9          35.9250    41.4950    48.0520 ha       128 EAM       0.170000
     43 C15         35.5380    39.5350    47.4210 ca       128 EAM       0.127100
     44 O2          36.1870    38.9820    48.5130 os       128 EAM      -0.317900
     45 C16         36.4990    37.5870    48.5230 c3       128 EAM       0.110700
     46 H6          36.9950    37.3400    49.4380 h1       128 EAM       0.049033
     47 H7          37.1380    37.3580    47.6960 h1       128 EAM       0.049033
     48 H8          35.5950    37.0200    48.4430 h1       128 EAM       0.049033
     49 C17         34.9470    38.7650    46.4190 ca       128 EAM      -0.179000
     50 H5          34.9870    37.7350    46.4650 ha       128 EAM       0.148000
     51 C18         34.3020    39.3950    45.3590 ca       128 EAM      -0.105000
     52 H4          33.8490    38.8200    44.6310 ha       128 EAM       0.150000
@<TRIPOS>BOND
     1     1     2 1   
     2     1     3 ar  
     3     1    11 ar  
     4     3     4 1   
     5     3     5 ar  
     6     5     6 1   
     7     5     7 ar  
     8     7     8 1   
     9     7     9 ar  
    10     9    10 1   
    11     9    11 ar  
    12    11    12 1   
    13    12    13 2   
    14    12    40 1   
    15    13    14 1   
    16    14    15 1   
    17    14    29 1   
    18    14    30 1   
    19    15    16 1   
    20    15    27 1   
    21    15    28 1   
    22    16    17 2   
    23    16    18 1   
    24    18    19 1   
    25    18    26 1   
    26    19    20 1   
    27    19    24 1   
    28    19    25 1   
    29    20    21 1   
    30    20    22 1   
    31    20    23 1   
    32    30    31 2   
    33    30    38 1   
    34    31    32 1   
    35    32    33 2   
    36    33    34 1   
    37    33    38 1   
    38    34    35 1   
    39    34    36 1   
    40    34    37 1   
    41    38    39 1   
    42    39    40 ar  
    43    39    51 ar  
    44    40    41 ar  
    45    41    42 1   
    46    41    43 ar  
    47    43    44 1   
    48    43    49 ar  
    49    44    45 1   
    50    45    46 1   
    51    45    47 1   
    52    45    48 1   
    53    49    50 1   
    54    49    51 ar  
    55    51    52 1   
@<TRIPOS>SUBSTRUCTURE
     1 EAM         1 TEMP              0 ****  ****    0 ROOT
