@<TRIPOS>MOLECULE
./divided-files/3p5o/LIGAND.pdb
 30 33 0 0 0
SMALL
GASTEIGER

@<TRIPOS>ATOM
      1  C8        36.7060   43.6410   46.9030 C.ar  128  EAM128      0.0023
      2  C9        37.6710   44.5330   47.3300 C.ar  128  EAM128      0.0114
      3  C10       37.2880   45.7660   47.8290 C.ar  128  EAM128      0.0577
      4 Cl         38.5150   46.8900   48.3400 Cl    128  EAM128     -0.0822
      5  C11       35.9450   46.1200   47.9230 C.ar  128  EAM128      0.0114
      6  C12       34.9750   45.2120   47.4960 C.ar  128  EAM128      0.0023
      7  C7        35.3460   43.9500   47.0150 C.ar  128  EAM128      0.0173
      8  C6        34.3360   42.9820   46.4930 C.2   128  EAM128      0.0779
      9  N2        33.2080   43.5040   46.1540 N.2   128  EAM128     -0.2641
     10  C5        32.1140   42.6300   45.7150 C.3   128  EAM128      0.1707
     11  C4        30.8580   43.5080   45.7350 C.3   128  EAM128      0.1188
     12  C3        30.4970   43.9460   47.1450 C.2   128  EAM128      0.2438
     13  O1        30.9040   43.3240   48.1180 O.2   128  EAM128     -0.2733
     14  N1        29.7190   45.0220   47.2660 N.am  128  EAM128     -0.2054
     15  C2        29.3190   45.5180   48.5770 C.3   128  EAM128      0.1152
     16  C1        28.1420   46.4700   48.5140 C.3   128  EAM128      0.0252
     17  C22       32.4340   42.1400   44.3070 C.ar  128  EAM128      0.1697
     18  N5        31.9270   42.4370   43.1350 N.ar  128  EAM128     -0.1313
     19  N4        32.7000   41.7790   42.1660 N.ar  128  EAM128     -0.1333
     20  C20       33.6480   41.1170   42.7840 C.ar  128  EAM128      0.1473
     21  C21       34.6750   40.2900   42.1000 C.3   128  EAM128      0.0742
     22  N3        33.5300   41.3230   44.1420 N.ar  128  EAM128     -0.2791
     23  C19       34.2530   40.7870   45.2540 C.ar  128  EAM128      0.0678
     24  C13       34.7840   41.5690   46.2810 C.ar  128  EAM128      0.0364
     25  C14       35.4640   40.9220   47.3280 C.ar  128  EAM128      0.0398
     26  C15       35.5380   39.5350   47.4210 C.ar  128  EAM128      0.1389
     27  O2        36.1870   38.9820   48.5130 O.3   128  EAM128     -0.4714
     28  C16       36.4990   37.5870   48.5230 C.3   128  EAM128      0.2525
     29  C17       34.9470   38.7650   46.4190 C.ar  128  EAM128      0.0384
     30  C18       34.3020   39.3950   45.3590 C.ar  128  EAM128      0.0208
@<TRIPOS>BOND
     1    21    20    1
     2    19    20   ar
     3    19    18   ar
     4    20    22   ar
     5    18    17   ar
     6    22    17   ar
     7    22    23    1
     8    17    10    1
     9    23    30   ar
    10    23    24   ar
    11    30    29   ar
    12    10    11    1
    13    10     9    1
    14    11    12    1
    15     9     8    2
    16    24     8    1
    17    24    25   ar
    18    29    26   ar
    19     8     7    1
    20     1     7   ar
    21     1     2   ar
    22     7     6   ar
    23    12    14   am
    24    12    13    2
    25    14    15    1
    26    25    26   ar
    27     2     3   ar
    28    26    27    1
    29     6     5   ar
    30     3     5   ar
    31     3     4    1
    32    27    28    1
    33    16    15    1
