@<TRIPOS>MOLECULE
./divided-files/3gr2/LIGAND.pdb
 26 26 0 0 0
SMALL
GASTEIGER

@<TRIPOS>ATOM
      1 O          49.8860   55.6140   51.6000 O.2     1  UNL1       -0.2546
      2 C          48.6400   55.8470   51.3690 C.2     1  UNL1        0.3064
      3 C          47.5280   55.0320   51.8850 C.3     1  UNL1        0.0823
      4 C          47.5910   53.7940   52.7410 C.3     1  UNL1       -0.0681
      5 C          47.4330   52.6170   51.7940 C.3     1  UNL1       -0.0681
      6 C          46.3240   55.7310   51.3250 C.2     1  UNL1        0.0597
      7 C          44.8840   55.3310   51.5280 C.3     1  UNL1       -0.0230
      8 N          46.7390   56.8010   50.6010 N.2     1  UNL1       -0.1188
      9 N          48.1420   56.8400   50.6490 N.am    1  UNL1       -0.0320
     10 C          48.8710   57.7790   50.0300 C.2     1  UNL1        0.4506
     11 N          48.3250   58.6310   49.1440 N.2     1  UNL1        0.0677
     12 N          49.4020   59.4360   48.7330 N.2     1  UNL1        0.0680
     13 N          50.5580   59.0020   49.4140 N.2     1  UNL1        0.0227
     14 N          50.1900   57.9320   50.2440 N.pl3   1  UNL1       -0.0931
     15 H          47.5900   54.0246   51.5298 H       1  UNL1        0.0436
     16 H          47.5169   54.9532   52.9520 H       1  UNL1        0.0436
     17 H          47.3424   53.4874   53.7355 H       1  UNL1        0.0227
     18 H          46.9380   54.5857   52.4381 H       1  UNL1        0.0227
     19 H          48.6039   54.1380   52.7165 H       1  UNL1        0.0227
     20 H          46.4201   52.2730   51.8185 H       1  UNL1        0.0227
     21 H          48.0860   51.8253   52.0969 H       1  UNL1        0.0227
     22 H          47.6816   52.9236   50.7995 H       1  UNL1        0.0227
     23 H          44.2469   56.0163   51.0090 H       1  UNL1        0.0290
     24 H          44.6524   55.3499   52.5725 H       1  UNL1        0.0290
     25 H          44.7311   54.3431   51.1466 H       1  UNL1        0.0290
     26 H          50.7674   57.4106   50.8473 H       1  UNL1        0.2799
@<TRIPOS>UNITY_ATOM_ATTR
11 1
charge -1
@<TRIPOS>BOND
     1    12    11    1
     2    12    13    2
     3    11    10    2
     4    13    14    1
     5    10    14    1
     6    10     9    1
     7     8     9    1
     8     8     6    2
     9     9     2   am
    10     6     7    1
    11     6     3    1
    12     2     1    2
    13     2     3    1
    14     5     4    1
    15     3    15    1
    16     3    16    1
    17     4    17    1
    18     4    18    1
    19     4    19    1
    20     5    20    1
    21     5    21    1
    22     5    22    1
    23     7    23    1
    24     7    24    1
    25     7    25    1
    26    14    26    1
