@<TRIPOS>MOLECULE
./divided-files/3gr2/LIGAND.pdb
 14 14 0 0 0
SMALL
GASTEIGER

@<TRIPOS>ATOM
      1  O11       49.8860   55.6140   51.6000 O.2   359  GF4359     -0.2730
      2  C3        48.6400   55.8470   51.3690 C.2   359  GF4359      0.2485
      3  C4        47.5280   55.0320   51.8850 C.3   359  GF4359      0.1295
      4  C12       47.5910   53.7940   52.7410 C.3   359  GF4359      0.0000
      5  C13       47.4330   52.6170   51.7940 C.3   359  GF4359      0.0000
      6  C5        46.3240   55.7310   51.3250 C.2   359  GF4359      0.0636
      7  C14       44.8840   55.3310   51.5280 C.3   359  GF4359      0.0494
      8  N1        46.7390   56.8010   50.6010 N.2   359  GF4359     -0.1857
      9  N2        48.1420   56.8400   50.6490 N.am  359  GF4359     -0.1735
     10  C6        48.8710   57.7790   50.0300 C.ar  359  GF4359      0.1214
     11  N10       48.3250   58.6310   49.1440 N.ar  359  GF4359     -0.2733
     12  N9        49.4020   59.4360   48.7330 N.ar  359  GF4359     -0.2168
     13  N8        50.5580   59.0020   49.4140 N.ar  359  GF4359     -0.2168
     14  N7        50.1900   57.9320   50.2440 N.ar  359  GF4359     -0.2733
@<TRIPOS>BOND
     1    12    11   ar
     2    12    13   ar
     3    11    10   ar
     4    13    14   ar
     5    10    14   ar
     6    10     9    1
     7     8     9    1
     8     8     6    2
     9     9     2   am
    10     6     7    1
    11     6     3    1
    12     2     1    2
    13     2     3    1
    14     5     4    1
