@<TRIPOS>MOLECULE
JVQ
   34    36     1     0     0
SMALL
bcc


@<TRIPOS>ATOM
      1 C1          18.5370    28.4210    39.9140 c3       165 JVQ      -0.119100
      2 H           18.7650    28.1700    40.9280 hc       165 JVQ       0.044367
      3 H1          19.4460    28.5260    39.3590 hc       165 JVQ       0.044367
      4 H2          17.9420    27.6460    39.4790 hc       165 JVQ       0.044367
      5 C2          17.7590    29.7460    39.8760 c3       165 JVQ       0.090000
      6 H3          16.8520    29.6380    40.4320 h1       165 JVQ       0.059700
      7 H4          18.3630    30.5170    40.3050 h1       165 JVQ       0.059700
      8 N3          17.4360    30.1080    38.4840 n        165 JVQ      -0.471800
      9 C4          18.3430    31.0500    37.7980 c3       165 JVQ       0.144300
     10 H5          17.8690    31.4140    36.9100 h1       165 JVQ       0.059200
     11 H6          18.5630    31.8660    38.4540 h1       165 JVQ       0.059200
     12 C5          19.6320    30.3540    37.4260 ca       165 JVQ      -0.145300
     13 C6          20.8300    30.8520    37.9430 ca       165 JVQ      -0.103000
     14 H7          20.8160    31.6920    38.5440 ha       165 JVQ       0.155000
     15 C7          22.0340    30.2330    37.6600 ca       165 JVQ       0.049100
     16 O8          23.3060    30.5300    38.0430 os       165 JVQ      -0.332900
     17 C9          24.1830    29.6680    37.2890 c3       165 JVQ       0.321200
     18 O10         23.3300    28.6630    36.7200 os       165 JVQ      -0.331900
     19 H13         24.9110    29.2210    37.9320 h2       165 JVQ       0.073700
     20 H14         24.7210    30.2060    36.5380 h2       165 JVQ       0.073700
     21 C11         22.0460    29.0960    36.8610 ca       165 JVQ       0.061100
     22 C12         20.8640    28.5850    36.3560 ca       165 JVQ      -0.099000
     23 H8          20.8840    27.7360    35.7710 ha       165 JVQ       0.170000
     24 C13         19.6490    29.2050    36.6290 ca       165 JVQ       0.114600
     25 N14         18.4690    28.6100    36.1240 nh       165 JVQ      -0.733600
     26 H15         18.3720    27.6350    36.2200 hn       165 JVQ       0.397800
     27 C15         17.3850    29.3380    35.4690 c3       165 JVQ       0.182800
     28 H9          17.7680    30.2800    35.1340 h1       165 JVQ       0.059200
     29 H10         17.0420    28.7210    34.6650 h1       165 JVQ       0.059200
     30 C16         16.1670    29.6050    36.3740 c3       165 JVQ      -0.189400
     31 H11         15.8380    30.6100    36.2080 hc       165 JVQ       0.078200
     32 H12         15.4250    28.8800    36.1150 hc       165 JVQ       0.078200
     33 C17         16.4470    29.4360    37.8440 c        165 JVQ       0.689500
     34 O18         15.7440    28.6590    38.4760 o        165 JVQ      -0.638500
@<TRIPOS>BOND
     1     1     2 1   
     2     1     3 1   
     3     1     4 1   
     4     1     5 1   
     5     5     6 1   
     6     5     7 1   
     7     5     8 1   
     8     8     9 1   
     9     8    33 1   
    10     9    10 1   
    11     9    11 1   
    12     9    12 1   
    13    12    13 ar  
    14    12    24 ar  
    15    13    14 1   
    16    13    15 ar  
    17    15    16 1   
    18    15    21 ar  
    19    16    17 1   
    20    17    18 1   
    21    17    19 1   
    22    17    20 1   
    23    18    21 1   
    24    21    22 ar  
    25    22    23 1   
    26    22    24 ar  
    27    24    25 1   
    28    25    26 1   
    29    25    27 1   
    30    27    28 1   
    31    27    29 1   
    32    27    30 1   
    33    30    31 1   
    34    30    32 1   
    35    30    33 1   
    36    33    34 2   
@<TRIPOS>SUBSTRUCTURE
     1 JVQ         1 TEMP              0 ****  ****    0 ROOT
