@<TRIPOS>MOLECULE
./divided-files/6r9u/LIGAND.pdb
 34 36 0 0 0
SMALL
GASTEIGER

@<TRIPOS>ATOM
      1 C1         18.5370   28.4210   39.9140 C.3   165  JVQ165165   -0.0493
      2 C2         17.7590   29.7460   39.8760 C.3   165  JVQ165165    0.0122
      3 N3         17.4360   30.1080   38.4840 N.am  165  JVQ165165   -0.2973
      4 C4         18.3430   31.0500   37.7980 C.3   165  JVQ165165    0.0415
      5 C5         19.6320   30.3540   37.4260 C.ar  165  JVQ165165   -0.0056
      6 C6         20.8300   30.8520   37.9430 C.ar  165  JVQ165165   -0.0097
      7 C7         22.0340   30.2330   37.6600 C.ar  165  JVQ165165    0.1667
      8 O8         23.3060   30.5300   38.0430 O.3   165  JVQ165165   -0.4526
      9 C9         24.1830   29.6680   37.2890 C.3   165  JVQ165165    0.2332
     10 O10        23.3300   28.6630   36.7200 O.3   165  JVQ165165   -0.4525
     11 C11        22.0460   29.0960   36.8610 C.ar  165  JVQ165165    0.1680
     12 C12        20.8640   28.5850   36.3560 C.ar  165  JVQ165165    0.0050
     13 C13        19.6490   29.2050   36.6290 C.ar  165  JVQ165165    0.0356
     14 N14        18.4690   28.6100   36.1240 N.pl3 165  JVQ165165   -0.3430
     15 C15        17.3850   29.3380   35.4690 C.3   165  JVQ165165    0.0174
     16 C16        16.1670   29.6050   36.3740 C.3   165  JVQ165165    0.0396
     17 C17        16.4470   29.4360   37.8440 C.2   165  JVQ165165    0.2173
     18 O18        15.7440   28.6590   38.4760 O.2   165  JVQ165165   -0.2755
     19 H          18.7648   28.1702   40.9289 H     165  JVQ165165    0.0245
     20 H          19.4462   28.5252   39.3596 H     165  JVQ165165    0.0245
     21 H          17.9415   27.6452   39.4799 H     165  JVQ165165    0.0245
     22 H          16.8516   29.6390   40.4328 H     165  JVQ165165    0.0462
     23 H          18.3630   30.5176   40.3058 H     165  JVQ165165    0.0462
     24 H          17.8691   31.4146   36.9107 H     165  JVQ165165    0.0514
     25 H          18.5628   31.8652   38.4553 H     165  JVQ165165    0.0514
     26 H          20.8167   31.6915   38.5431 H     165  JVQ165165    0.0659
     27 H          24.6783   30.2197   36.5175 H     165  JVQ165165    0.1166
     28 H          24.9474   29.2407   37.9038 H     165  JVQ165165    0.1166
     29 H          20.8837   27.7352   35.7708 H     165  JVQ165165    0.0674
     30 H          18.3714   27.6352   36.2210 H     165  JVQ165165    0.1461
     31 H          17.0578   28.7659   34.6260 H     165  JVQ165165    0.0466
     32 H          17.7789   30.2939   35.1933 H     165  JVQ165165    0.0466
     33 H          15.3883   28.9245   36.0995 H     165  JVQ165165    0.0374
     34 H          15.8908   30.6283   36.2272 H     165  JVQ165165    0.0374
@<TRIPOS>BOND
     1    15    14    1
     2    15    16    1
     3    14    13    1
     4    12    13   ar
     5    12    11   ar
     6    16    17    1
     7    13     5   ar
     8    10    11    1
     9    10     9    1
    10    11     7   ar
    11     9     8    1
    12     5     4    1
    13     5     6   ar
    14     7     6   ar
    15     7     8    1
    16     4     3    1
    17    17    18    2
    18    17     3   am
    19     3     2    1
    20     2     1    1
    21     1    19    1
    22     1    20    1
    23     1    21    1
    24     2    22    1
    25     2    23    1
    26     4    24    1
    27     4    25    1
    28     6    26    1
    29     9    27    1
    30     9    28    1
    31    12    29    1
    32    14    30    1
    33    15    31    1
    34    15    32    1
    35    16    33    1
    36    16    34    1
