@<TRIPOS>MOLECULE
./divided-files/6r9u/LIGAND.pdb
 18 20 0 0 0
SMALL
GASTEIGER

@<TRIPOS>ATOM
      1  C1        18.5370   28.4210   39.9140 C.3   165  JVQ165      0.0233
      2  C2        17.7590   29.7460   39.8760 C.3   165  JVQ165      0.0938
      3  N3        17.4360   30.1080   38.4840 N.am  165  JVQ165     -0.2753
      4  C4        18.3430   31.0500   37.7980 C.3   165  JVQ165      0.1215
      5  C5        19.6320   30.3540   37.4260 C.ar  165  JVQ165      0.0157
      6  C6        20.8300   30.8520   37.9430 C.ar  165  JVQ165      0.0389
      7  C7        22.0340   30.2330   37.6600 C.ar  165  JVQ165      0.1762
      8  O8        23.3060   30.5300   38.0430 O.3   165  JVQ165     -0.4346
      9  C9        24.1830   29.6680   37.2890 C.3   165  JVQ165      0.4294
     10  O10       23.3300   28.6630   36.7200 O.3   165  JVQ165     -0.4346
     11  C11       22.0460   29.0960   36.8610 C.ar  165  JVQ165      0.1777
     12  C12       20.8640   28.5850   36.3560 C.ar  165  JVQ165      0.0560
     13  C13       19.6490   29.2050   36.6290 C.ar  165  JVQ165      0.0662
     14  N14       18.4690   28.6100   36.1240 N.pl3 165  JVQ165     -0.2372
     15  C15       17.3850   29.3380   35.4690 C.3   165  JVQ165      0.1218
     16  C16       16.1670   29.6050   36.3740 C.3   165  JVQ165      0.1085
     17  C17       16.4470   29.4360   37.8440 C.2   165  JVQ165      0.2277
     18  O18       15.7440   28.6590   38.4760 O.2   165  JVQ165     -0.2748
@<TRIPOS>BOND
     1    15    14    1
     2    15    16    1
     3    14    13    1
     4    12    13   ar
     5    12    11   ar
     6    16    17    1
     7    13     5   ar
     8    10    11    1
     9    10     9    1
    10    11     7   ar
    11     9     8    1
    12     5     4    1
    13     5     6   ar
    14     7     6   ar
    15     7     8    1
    16     4     3    1
    17    17    18    2
    18    17     3   am
    19     3     2    1
    20     2     1    1
