@<TRIPOS>MOLECULE
GF4
   23    24     1     0     0
SMALL
bcc


@<TRIPOS>ATOM
      1 O11         49.8860    55.6140    51.6000 o        359 GF4      -0.571500
      2 C3          48.6400    55.8470    51.3690 c        359 GF4       0.676500
      3 C4          47.5280    55.0320    51.8850 c3       359 GF4      -0.231000
      4 C12         47.5910    53.7940    52.7410 c3       359 GF4      -0.048400
      5 C13         47.4330    52.6170    51.7940 c3       359 GF4      -0.099100
      6 H3          46.5030    52.7010    51.2710 hc       359 GF4       0.039700
      7 H4          47.4470    51.7050    52.3540 hc       359 GF4       0.039700
      8 H5          48.2390    52.6140    51.0900 hc       359 GF4       0.039700
      9 H1          46.8000    53.8000    53.4610 hc       359 GF4       0.039200
     10 H2          48.5140    53.7400    53.2800 hc       359 GF4       0.039200
     11 H           47.5470    54.1930    52.5480 hc       359 GF4       0.085700
     12 C5          46.3240    55.7310    51.3250 c2       359 GF4       0.250300
     13 C14         44.8840    55.3310    51.5280 c3       359 GF4      -0.096400
     14 H6          44.8390    54.4530    52.1380 hc       359 GF4       0.040367
     15 H7          44.4330    55.1290    50.5790 hc       359 GF4       0.040367
     16 H8          44.3570    56.1280    52.0110 hc       359 GF4       0.040367
     17 N1          46.7390    56.8010    50.6010 n2       359 GF4      -0.382300
     18 N2          48.1420    56.8400    50.6490 n        359 GF4      -0.060400
     19 C6          48.8710    57.7790    50.0300 cc       359 GF4       0.330000
     20 N10         48.3250    58.6310    49.1440 nc       359 GF4      -0.414000
     21 N9          49.4020    59.4360    48.7330 nd       359 GF4      -0.171000
     22 N8          50.5580    59.0020    49.4140 nd       359 GF4      -0.171000
     23 N7          50.1900    57.9320    50.2440 nc       359 GF4      -0.414000
@<TRIPOS>BOND
     1     1     2 2   
     2     2     3 1   
     3     2    18 1   
     4     3     4 1   
     5     3    11 1   
     6     3    12 1   
     7     4     5 1   
     8     4     9 1   
     9     4    10 1   
    10     5     6 1   
    11     5     7 1   
    12     5     8 1   
    13    12    13 1   
    14    12    17 2   
    15    13    14 1   
    16    13    15 1   
    17    13    16 1   
    18    17    18 1   
    19    18    19 2   
    20    19    20 1   
    21    19    23 1   
    22    20    21 2   
    23    21    22 1   
    24    22    23 2   
@<TRIPOS>SUBSTRUCTURE
     1 GF4         1 TEMP              0 ****  ****    0 ROOT
