@<TRIPOS>MOLECULE
0C0
   46    49     1     0     0
SMALL
bcc


@<TRIPOS>ATOM
      1 O28         34.1320    56.4000    45.0820 o        267 0C0      -0.829300
      2 C22         32.8720    56.3920    45.0800 c        267 0C0       0.907200
      3 O29         32.2310    57.4230    45.4260 o        267 0C0      -0.829300
      4 C19         32.1410    55.1570    44.6680 ca       267 0C0      -0.120600
      5 C20         32.8020    54.1430    43.9820 ca       267 0C0      -0.107000
      6 C21         32.1150    52.9970    43.6020 ca       267 0C0      -0.151500
      7 H11         32.6070    52.2430    43.0980 ha       267 0C0       0.119000
      8 H10         33.8040    54.2440    43.7550 ha       267 0C0       0.154000
      9 C18         30.7950    55.0230    44.9760 ca       267 0C0      -0.107000
     10 H9          30.3040    55.7730    45.4880 ha       267 0C0       0.154000
     11 C17         30.1110    53.8800    44.5920 ca       267 0C0      -0.151500
     12 H8          29.1100    53.7800    44.8220 ha       267 0C0       0.119000
     13 C16         30.7650    52.8690    43.9010 ca       267 0C0       0.067600
     14 N04         30.0170    51.7000    43.5420 nh       267 0C0      -0.688300
     15 H1          29.2720    51.4520    44.1350 hn       267 0C0       0.425800
     16 C06         30.2460    50.8560    42.4020 ca       267 0C0       0.898900
     17 N02         31.4410    50.8070    41.7980 nb       267 0C0      -0.767000
     18 N01         29.2120    50.1140    41.9920 nb       267 0C0      -0.790000
     19 C05         29.3530    49.2950    40.9370 ca       267 0C0       0.478200
     20 H2          28.5550    48.7240    40.6180 h4       267 0C0       0.010100
     21 C08         30.5730    49.2140    40.2730 ca       267 0C0      -0.487600
     22 H3          30.6920    48.5890    39.4610 ha       267 0C0       0.142000
     23 C07         31.6300    49.9980    40.7350 ca       267 0C0       0.702200
     24 N03         32.9000    49.9250    40.0590 nh       267 0C0      -0.720300
     25 H           32.9890    49.3370    39.2740 hn       267 0C0       0.422800
     26 C09         34.0420    50.6830    40.4910 ca       267 0C0       0.145600
     27 C10         33.9720    52.0670    40.5420 ca       267 0C0      -0.109000
     28 H4          33.1000    52.5490    40.2730 ha       267 0C0       0.170000
     29 C11         35.0740    52.8020    40.9530 ca       267 0C0      -0.098000
     30 H5          35.0150    53.8320    40.9920 ha       267 0C0       0.163000
     31 C12         36.2520    52.1690    41.3130 ca       267 0C0      -0.149000
     32 H6          37.0680    52.7220    41.6180 ha       267 0C0       0.135000
     33 C13         36.3240    50.7860    41.2580 ca       267 0C0      -0.109000
     34 H7          37.1980    50.3060    41.5240 ha       267 0C0       0.126000
     35 C14         35.2250    50.0420    40.8480 cp       267 0C0      -0.106000
     36 C15         35.3390    48.5530    40.8080 cp       267 0C0      -0.028000
     37 C23         35.4790    47.8880    39.5980 ca       267 0C0      -0.125500
     38 H12         35.5000    48.4210    38.7140 ha       267 0C0       0.142000
     39 C24         35.5890    46.5070    39.5790 ca       267 0C0      -0.134000
     40 H13         35.6910    46.0090    38.6810 ha       267 0C0       0.127000
     41 C25         35.5620    45.7930    40.7680 ca       267 0C0      -0.137000
     42 H14         35.6450    44.7640    40.7520 ha       267 0C0       0.125000
     43 C26         35.4240    46.4540    41.9780 ca       267 0C0      -0.134000
     44 H15         35.4030    45.9210    42.8600 ha       267 0C0       0.127000
     45 C27         35.3160    47.8360    41.9950 ca       267 0C0      -0.125500
     46 H16         35.2170    48.3320    42.8950 ha       267 0C0       0.142000
@<TRIPOS>BOND
     1     1     2 1   
     2     2     3 1   
     3     2     4 1   
     4     4     5 ar  
     5     4     9 ar  
     6     5     6 ar  
     7     5     8 1   
     8     6     7 1   
     9     6    13 ar  
    10     9    10 1   
    11     9    11 ar  
    12    11    12 1   
    13    11    13 ar  
    14    13    14 1   
    15    14    15 1   
    16    14    16 1   
    17    16    17 ar  
    18    16    18 ar  
    19    17    23 ar  
    20    18    19 ar  
    21    19    20 1   
    22    19    21 ar  
    23    21    22 1   
    24    21    23 ar  
    25    23    24 1   
    26    24    25 1   
    27    24    26 1   
    28    26    27 ar  
    29    26    35 ar  
    30    27    28 1   
    31    27    29 ar  
    32    29    30 1   
    33    29    31 ar  
    34    31    32 1   
    35    31    33 ar  
    36    33    34 1   
    37    33    35 ar  
    38    35    36 1   
    39    36    37 ar  
    40    36    45 ar  
    41    37    38 1   
    42    37    39 ar  
    43    39    40 1   
    44    39    41 ar  
    45    41    42 1   
    46    41    43 ar  
    47    43    44 1   
    48    43    45 ar  
    49    45    46 1   
@<TRIPOS>SUBSTRUCTURE
     1 0C0         1 TEMP              0 ****  ****    0 ROOT
