@<TRIPOS>MOLECULE
5B8
  106   110     1     0     0
SMALL
bcc


@<TRIPOS>ATOM
      1 CAW         30.7140    38.5430    26.0590 c3       129 5B8      -0.076400
      2 H           30.5980    39.6040    26.1340 hc       129 5B8       0.042950
      3 H1          29.8870    38.1270    26.5950 hc       129 5B8       0.042950
      4 CAO         30.7690    38.0980    24.5950 c3       129 5B8      -0.076400
      5 H2          31.6950    38.4030    24.1530 hc       129 5B8       0.044450
      6 H3          29.9760    38.5410    24.0310 hc       129 5B8       0.044450
      7 CAN         30.6610    36.5860    24.5880 c3       129 5B8      -0.078400
      8 H4          30.5610    36.2410    23.5810 hc       129 5B8       0.042200
      9 H5          29.8030    36.2880    25.1550 hc       129 5B8       0.042200
     10 CAP         31.9110    35.9840    25.2090 c3       129 5B8      -0.076400
     11 H6          31.7870    34.9230    25.2810 hc       129 5B8       0.044450
     12 H7          32.7460    36.2270    24.5860 hc       129 5B8       0.044450
     13 CAX         32.1700    36.5520    26.6080 c3       129 5B8      -0.076400
     14 H8          31.4310    36.1690    27.2800 hc       129 5B8       0.042950
     15 H9          33.1530    36.2570    26.9100 hc       129 5B8       0.042950
     16 CBS         32.1070    38.0870    26.6200 c3       129 5B8      -0.061700
     17 H10         32.8510    38.5080    25.9770 hc       129 5B8       0.079700
     18 CBU         32.4400    38.6340    28.0470 c3       129 5B8      -0.149700
     19 CBQ         32.3640    40.1810    28.0730 c3       129 5B8       0.143100
     20 CAC         32.9990    40.7370    29.3440 c3       129 5B8      -0.140100
     21 H13         34.0330    40.4630    29.3760 hc       129 5B8       0.045700
     22 H14         32.4970    40.3350    30.2000 hc       129 5B8       0.045700
     23 H15         32.9130    41.8040    29.3490 hc       129 5B8       0.045700
     24 OAF         33.0780    40.7300    26.9610 oh       129 5B8      -0.583800
     25 H16         34.0120    40.4750    27.0180 ho       129 5B8       0.395000
     26 H12         31.3290    40.4500    28.0320 h1       129 5B8       0.108700
     27 H11         33.4410    38.3220    28.2650 hc       129 5B8       0.056700
     28 CBK         31.5170    38.0370    29.1550 c        129 5B8       0.682100
     29 OAE         30.2900    38.1540    29.0380 o        129 5B8      -0.606100
     30 N           32.0880    37.3960    30.2280 n        129 5B8      -0.467800
     31 CBA         33.5770    37.2570    30.4710 c3       129 5B8       0.093000
     32 H17         33.8790    38.0420    31.1330 h1       129 5B8       0.048200
     33 H18         34.0410    37.3070    29.5070 h1       129 5B8       0.048200
     34 CAR         34.0030    35.9670    31.0660 c3       129 5B8      -0.095400
     35 H19         35.0310    36.0160    31.3580 hc       129 5B8       0.056700
     36 H20         33.9030    35.1670    30.3640 hc       129 5B8       0.056700
     37 CAQ         33.1260    35.7400    32.2790 c3       129 5B8      -0.082400
     38 H21         33.2140    36.5810    32.9360 hc       129 5B8       0.052700
     39 H22         33.4480    34.8460    32.7700 hc       129 5B8       0.052700
     40 CB          31.6730    35.5750    31.8770 c3       129 5B8      -0.083400
     41 H23         31.5930    34.7900    31.1550 hc       129 5B8       0.069200
     42 H24         31.0950    35.3320    32.7440 hc       129 5B8       0.069200
     43 CA          31.1460    36.8720    31.2720 c3       129 5B8       0.069700
     44 H25         30.2100    36.6530    30.8020 h1       129 5B8       0.122700
     45 C           30.9120    37.8540    32.2750 c        129 5B8       0.620100
     46 O           29.9120    37.8050    33.0000 o        129 5B8      -0.561000
     47 OBI         31.8670    38.8340    32.3650 os       129 5B8      -0.425900
     48 CBR         31.6580    39.8780    33.3410 c3       129 5B8       0.189400
     49 CAZ         30.7730    40.9340    32.6940 c3       129 5B8      -0.085400
     50 CAV         30.2140    41.9050    33.7020 c3       129 5B8      -0.045100
     51 CBL         29.1070    41.4170    34.4560 ca       129 5B8      -0.023300
     52 CAM         27.8040    41.2690    33.9380 ca       129 5B8      -0.182000
     53 CBP         26.7580    40.8200    34.7610 ca       129 5B8       0.086100
     54 CBO         27.0230    40.5160    36.1040 ca       129 5B8       0.017100
     55 CAK         28.3060    40.6870    36.6120 ca       129 5B8      -0.111000
     56 CAJ         29.3300    41.1400    35.8010 ca       129 5B8      -0.142000
     57 H32         30.2730    41.2730    36.1990 ha       129 5B8       0.153000
     58 H33         28.4950    40.4750    37.6040 ha       129 5B8       0.152000
     59 OBE         26.0370    40.0840    36.9610 os       129 5B8      -0.400900
     60 CAA         24.8840    39.3340    36.5430 c3       129 5B8       0.117700
     61 H34         24.2710    39.1190    37.3930 h1       129 5B8       0.054700
     62 H35         25.2000    38.4170    36.0910 h1       129 5B8       0.054700
     63 H36         24.3230    39.9060    35.8340 h1       129 5B8       0.054700
     64 OBF         25.4740    40.6210    34.3430 os       129 5B8      -0.355900
     65 CAB         24.9530    41.5050    33.3360 c3       129 5B8       0.108700
     66 H37         23.9440    41.2320    33.1090 h1       129 5B8       0.057033
     67 H38         25.5510    41.4300    32.4520 h1       129 5B8       0.057033
     68 H39         24.9770    42.5120    33.6990 h1       129 5B8       0.057033
     69 H31         27.6180    41.4910    32.9470 ha       129 5B8       0.156000
     70 H29         30.9960    42.1600    34.3860 hc       129 5B8       0.070700
     71 H30         29.8500    42.7410    33.1430 hc       129 5B8       0.070700
     72 H27         31.3520    41.4770    31.9770 hc       129 5B8       0.070700
     73 H28         29.9490    40.4320    32.2290 hc       129 5B8       0.070700
     74 H26         31.1430    39.6100    34.2400 h1       129 5B8       0.070700
     75 CBN         32.9620    40.2770    33.6900 ca       129 5B8      -0.066300
     76 CAI         33.8740    40.8020    32.7770 ca       129 5B8      -0.120000
     77 CAG         35.1690    41.1440    33.1740 ca       129 5B8      -0.104000
     78 CAH         35.5760    40.9360    34.4930 ca       129 5B8      -0.127000
     79 H43         36.5300    41.1910    34.7950 ha       129 5B8       0.157000
     80 H42         35.8260    41.5520    32.4900 ha       129 5B8       0.150000
     81 H41         33.5890    40.9400    31.7950 ha       129 5B8       0.156000
     82 CAL         33.3920    40.0530    34.9860 ca       129 5B8      -0.174000
     83 H40         32.7400    39.6320    35.6660 ha       129 5B8       0.133000
     84 CBM         34.6720    40.3780    35.3940 ca       129 5B8       0.082100
     85 OBH         34.9430    40.1500    36.7050 os       129 5B8      -0.343900
     86 CAU         36.2540    39.8020    37.0660 c3       129 5B8       0.113400
     87 H44         36.8660    40.6750    37.1550 h1       129 5B8       0.090700
     88 H45         36.7240    39.1770    36.3350 h1       129 5B8       0.090700
     89 CBD         36.1060    39.1070    38.4130 c3       129 5B8       0.073800
     90 H46         35.1200    38.6970    38.4770 hx       129 5B8       0.112200
     91 H47         36.8620    38.3510    38.4640 hx       129 5B8       0.112200
     92 NBV         36.3160    40.0200    39.5740 n4       129 5B8      -0.675400
     93 H48         36.0020    39.4780    40.3790 hn       129 5B8       0.473800
     94 CBB         35.4700    41.2300    39.5590 c3       129 5B8       0.071300
     95 H49         35.6230    41.7510    38.6380 hx       129 5B8       0.113450
     96 H50         34.4480    40.9290    39.6580 hx       129 5B8       0.113450
     97 CAS         35.8140    42.1610    40.7210 c3       129 5B8       0.101400
     98 H51         35.2920    43.0880    40.6020 h1       129 5B8       0.092200
     99 H52         35.5220    41.7050    41.6440 h1       129 5B8       0.092200
    100 OBG         37.2480    42.4090    40.7330 os       129 5B8      -0.379600
    101 CAT         37.9430    41.2230    41.0380 c3       129 5B8       0.101400
    102 H53         37.5310    40.7520    41.9060 h1       129 5B8       0.092200
    103 H54         38.9760    41.3940    41.2600 h1       129 5B8       0.092200
    104 CBC         37.7400    40.3490    39.7930 c3       129 5B8       0.071300
    105 H55         38.2900    39.4400    39.9160 hx       129 5B8       0.113450
    106 H56         38.0870    40.8990    38.9430 hx       129 5B8       0.113450
@<TRIPOS>BOND
     1     1     2 1   
     2     1     3 1   
     3     1     4 1   
     4     1    16 1   
     5     4     5 1   
     6     4     6 1   
     7     4     7 1   
     8     7     8 1   
     9     7     9 1   
    10     7    10 1   
    11    10    11 1   
    12    10    12 1   
    13    10    13 1   
    14    13    14 1   
    15    13    15 1   
    16    13    16 1   
    17    16    17 1   
    18    16    18 1   
    19    18    19 1   
    20    18    27 1   
    21    18    28 1   
    22    19    20 1   
    23    19    24 1   
    24    19    26 1   
    25    20    21 1   
    26    20    22 1   
    27    20    23 1   
    28    24    25 1   
    29    28    29 2   
    30    28    30 1   
    31    30    31 1   
    32    30    43 1   
    33    31    32 1   
    34    31    33 1   
    35    31    34 1   
    36    34    35 1   
    37    34    36 1   
    38    34    37 1   
    39    37    38 1   
    40    37    39 1   
    41    37    40 1   
    42    40    41 1   
    43    40    42 1   
    44    40    43 1   
    45    43    44 1   
    46    43    45 1   
    47    45    46 2   
    48    45    47 1   
    49    47    48 1   
    50    48    49 1   
    51    48    74 1   
    52    48    75 1   
    53    49    50 1   
    54    49    72 1   
    55    49    73 1   
    56    50    51 1   
    57    50    70 1   
    58    50    71 1   
    59    51    52 ar  
    60    51    56 ar  
    61    52    53 ar  
    62    52    69 1   
    63    53    54 ar  
    64    53    64 1   
    65    54    55 ar  
    66    54    59 1   
    67    55    56 ar  
    68    55    58 1   
    69    56    57 1   
    70    59    60 1   
    71    60    61 1   
    72    60    62 1   
    73    60    63 1   
    74    64    65 1   
    75    65    66 1   
    76    65    67 1   
    77    65    68 1   
    78    75    76 ar  
    79    75    82 ar  
    80    76    77 ar  
    81    76    81 1   
    82    77    78 ar  
    83    77    80 1   
    84    78    79 1   
    85    78    84 ar  
    86    82    83 1   
    87    82    84 ar  
    88    84    85 1   
    89    85    86 1   
    90    86    87 1   
    91    86    88 1   
    92    86    89 1   
    93    89    90 1   
    94    89    91 1   
    95    89    92 1   
    96    92    93 1   
    97    92    94 1   
    98    92   104 1   
    99    94    95 1   
   100    94    96 1   
   101    94    97 1   
   102    97    98 1   
   103    97    99 1   
   104    97   100 1   
   105   100   101 1   
   106   101   102 1   
   107   101   103 1   
   108   101   104 1   
   109   104   105 1   
   110   104   106 1   
@<TRIPOS>SUBSTRUCTURE
     1 5B8         1 TEMP              0 ****  ****    0 ROOT
