@<TRIPOS>MOLECULE
./divided-files/2iwx/LIGAND.pdb
 45 46 0 0 0
SMALL
GASTEIGER

@<TRIPOS>ATOM
      1 O4         41.8360   35.6970   35.1840 O.3   215  M1S215215   -0.5052
      2 C5         43.0750   36.0560   34.7130 C.ar  215  M1S215215    0.1389
      3 C4         43.7150   37.1860   35.2280 C.ar  215  M1S215215    0.0236
      4 C3         44.9860   37.4670   34.7470 C.ar  215  M1S215215    0.1346
      5 O3         45.6250   38.5980   35.2250 O.3   215  M1S215215   -0.5058
      6 C2         45.6050   36.6610   33.7760 C.ar  215  M1S215215    0.1054
      7 C1         46.9980   37.0140   33.3430 C.2   215  M1S215215    0.3431
      8 O2         47.4260   38.1360   33.1850 O.2   215  M1S215215   -0.2448
      9 O1         47.8180   35.8700   33.2370 O.3   215  M1S215215   -0.4608
     10 C18        49.2050   36.0900   32.8710 C.3   215  M1S215215    0.0962
     11 C17        50.0700   35.8110   34.0960 C.3   215  M1S215215   -0.0003
     12 C16        49.9230   34.4240   34.6780 C.2   215  M1S215215   -0.0847
     13 C15        49.4060   34.2520   35.8920 C.2   215  M1S215215   -0.0878
     14 C14        49.2770   32.8620   36.4750 C.3   215  M1S215215   -0.0348
     15 C13        47.8080   32.5510   36.7580 C.3   215  M1S215215   -0.0496
     16 C12        47.2980   31.4370   35.8440 C.3   215  M1S215215   -0.0524
     17 C11        47.2730   31.8440   34.3790 C.3   215  M1S215215   -0.0464
     18 C10        46.3140   33.0150   34.1330 C.3   215  M1S215215    0.0062
     19 C9         46.4100   33.4900   32.7110 C.2   215  M1S215215    0.1377
     20 O5         47.1470   32.9470   31.8840 O.2   215  M1S215215   -0.2971
     21 C8         45.5710   34.6190   32.1890 C.3   215  M1S215215    0.0334
     22 C7         44.9660   35.5380   33.2590 C.ar  215  M1S215215   -0.0009
     23 C6         43.6980   35.2950   33.7630 C.ar  215  M1S215215    0.0869
     24 Cl1        42.7820   33.9310   33.1040 Cl    215  M1S215215   -0.0794
     25 H          41.4054   34.9394   34.8397 H     215  M1S215215    0.2922
     26 H          43.2622   37.7857   35.9354 H     215  M1S215215    0.0691
     27 H          46.4839   38.8151   34.9198 H     215  M1S215215    0.2922
     28 H          49.3401   37.1033   32.5551 H     215  M1S215215    0.0700
     29 H          49.4827   35.4416   32.0664 H     215  M1S215215    0.0700
     30 H          49.8093   36.5189   34.8548 H     215  M1S215215    0.0340
     31 H          51.0859   35.8929   33.7702 H     215  M1S215215    0.0340
     32 H          50.2259   33.6039   34.1296 H     215  M1S215215    0.0570
     33 H          49.0919   35.0697   36.4377 H     215  M1S215215    0.0569
     34 H          49.8334   32.8069   37.3873 H     215  M1S215215    0.0307
     35 H          49.6593   32.1493   35.7745 H     215  M1S215215    0.0307
     36 H          47.7059   32.2417   37.7772 H     215  M1S215215    0.0268
     37 H          47.2312   33.4334   36.5745 H     215  M1S215215    0.0268
     38 H          47.9378   30.5861   35.9519 H     215  M1S215215    0.0265
     39 H          46.2923   31.2159   36.1348 H     215  M1S215215    0.0265
     40 H          48.2592   32.1351   34.0829 H     215  M1S215215    0.0269
     41 H          46.9323   31.0072   33.8057 H     215  M1S215215    0.0269
     42 H          45.3119   32.6957   34.3298 H     215  M1S215215    0.0342
     43 H          46.5812   33.8212   34.7838 H     215  M1S215215    0.0342
     44 H          44.7670   34.1982   31.6221 H     215  M1S215215    0.0391
     45 H          46.2293   35.2330   31.6106 H     215  M1S215215    0.0391
@<TRIPOS>BOND
     1    20    19    2
     2    21    19    1
     3    21    22    1
     4    19    18    1
     5    10     9    1
     6    10    11    1
     7    24    23    1
     8     8     7    2
     9     9     7    1
    10    22    23   ar
    11    22     6   ar
    12     7     6    1
    13    23     2   ar
    14     6     4   ar
    15    11    12    1
    16    18    17    1
    17    17    16    1
    18    12    13    2
    19     2     1    1
    20     2     3   ar
    21     4     5    1
    22     4     3   ar
    23    16    15    1
    24    13    14    1
    25    14    15    1
    26     1    25    1
    27     3    26    1
    28     5    27    1
    29    10    28    1
    30    10    29    1
    31    11    30    1
    32    11    31    1
    33    12    32    1
    34    13    33    1
    35    14    34    1
    36    14    35    1
    37    15    36    1
    38    15    37    1
    39    16    38    1
    40    16    39    1
    41    17    40    1
    42    17    41    1
    43    18    42    1
    44    18    43    1
    45    21    44    1
    46    21    45    1
