@<TRIPOS>MOLECULE
./divided-files/2iwx/LIGAND.pdb
 24 25 0 0 0
SMALL
GASTEIGER

@<TRIPOS>ATOM
      1  O4        41.8360   35.6970   35.1840 O.3   215  M1S215     -0.2856
      2  C5        43.0750   36.0560   34.7130 C.ar  215  M1S215      0.2090
      3  C4        43.7150   37.1860   35.2280 C.ar  215  M1S215      0.0851
      4  C3        44.9860   37.4670   34.7470 C.ar  215  M1S215      0.2048
      5  O3        45.6250   38.5980   35.2250 O.3   215  M1S215     -0.2862
      6  C2        45.6050   36.6610   33.7760 C.ar  215  M1S215      0.1119
      7  C1        46.9980   37.0140   33.3430 C.2   215  M1S215      0.3441
      8  O2        47.4260   38.1360   33.1850 O.2   215  M1S215     -0.2448
      9  O1        47.8180   35.8700   33.2370 O.3   215  M1S215     -0.4450
     10  C18       49.2050   36.0900   32.8710 C.3   215  M1S215      0.2134
     11  C17       50.0700   35.8110   34.0960 C.3   215  M1S215      0.0731
     12  C16       49.9230   34.4240   34.6780 C.2   215  M1S215     -0.0268
     13  C15       49.4060   34.2520   35.8920 C.2   215  M1S215     -0.0306
     14  C14       49.2770   32.8620   36.4750 C.3   215  M1S215      0.0257
     15  C13       47.8080   32.5510   36.7580 C.3   215  M1S215      0.0047
     16  C12       47.2980   31.4370   35.8440 C.3   215  M1S215      0.0008
     17  C11       47.2730   31.8440   34.3790 C.3   215  M1S215      0.0078
     18  C10       46.3140   33.0150   34.1330 C.3   215  M1S215      0.0649
     19  C9        46.4100   33.4900   32.7110 C.2   215  M1S215      0.1551
     20  O5        47.1470   32.9470   31.8840 O.2   215  M1S215     -0.2957
     21  C8        45.5710   34.6190   32.1890 C.3   215  M1S215      0.0920
     22  C7        44.9660   35.5380   33.2590 C.ar  215  M1S215      0.0083
     23  C6        43.6980   35.2950   33.7630 C.ar  215  M1S215      0.0933
     24 Cl1        42.7820   33.9310   33.1040 Cl    215  M1S215     -0.0792
@<TRIPOS>BOND
     1    20    19    2
     2    21    19    1
     3    21    22    1
     4    19    18    1
     5    10     9    1
     6    10    11    1
     7    24    23    1
     8     8     7    2
     9     9     7    1
    10    22    23   ar
    11    22     6   ar
    12     7     6    1
    13    23     2   ar
    14     6     4   ar
    15    11    12    1
    16    18    17    1
    17    17    16    1
    18    12    13    2
    19     2     1    1
    20     2     3   ar
    21     4     5    1
    22     4     3   ar
    23    16    15    1
    24    13    14    1
    25    14    15    1
