@<TRIPOS>MOLECULE
./divided-files/1bzc/LIGAND.pdb
 45 46 0 0 0
SMALL
GASTEIGER

@<TRIPOS>ATOM
      1 O6         43.3920   23.7000   30.3570 O.co2 298  TPI298298   -0.5498
      2 C17        43.7550   23.4280   31.6070 C.2   298  TPI298298    0.0418
      3 O7         44.8800   23.0160   31.8850 O.co2 298  TPI298298   -0.5498
      4 C16        42.6910   23.6470   32.6410 C.3   298  TPI298298   -0.0111
      5 C15        43.2930   23.4260   34.0360 C.3   298  TPI298298   -0.0209
      6 C13        42.2430   23.6240   35.1520 C.3   298  TPI298298    0.0998
      7 C14        42.8230   23.0900   36.4400 C.2   298  TPI298298    0.2308
      8 N2         42.2350   21.8940   37.0070 N.am  298  TPI298298   -0.3278
      9 O5         43.7800   23.6220   36.9800 O.2   298  TPI298298   -0.2740
     10 N1         41.7570   25.0120   35.1700 N.am  298  TPI298298   -0.3000
     11 C12        40.7300   25.2890   36.1790 C.2   298  TPI298298    0.2447
     12 O4         40.3130   24.4230   36.9360 O.2   298  TPI298298   -0.2702
     13 C7         40.1470   26.6880   36.3110 C.ar  298  TPI298298    0.0373
     14 C6         39.1880   26.9340   37.3010 C.ar  298  TPI298298   -0.0419
     15 C11        38.6220   28.2100   37.4470 C.ar  298  TPI298298   -0.0171
     16 C5         37.6630   28.4160   38.4460 C.ar  298  TPI298298   -0.0536
     17 C4         37.0650   29.6680   38.5830 C.ar  298  TPI298298   -0.0517
     18 C3         37.4180   30.7320   37.7320 C.ar  298  TPI298298    0.0334
     19 C1         36.6700   32.0600   37.8790 C.3   298  TPI298298    0.3711
     20 P          37.4670   33.2620   38.9430 P.3   298  TPI298298    0.4007
     21 O1         38.8970   33.6190   38.3530 O.3   298  TPI298298   -0.3199
     22 O2         36.6070   34.4630   38.9890 O.2   298  TPI298298   -0.2522
     23 O3         37.6220   32.6490   40.3980 O.3   298  TPI298298   -0.3199
     24 F1         35.4360   31.7910   38.3640 F     298  TPI298298   -0.1866
     25 F2         36.5580   32.6230   36.6750 F     298  TPI298298   -0.1866
     26 C2         38.3990   30.5350   36.7350 C.ar  298  TPI298298   -0.0446
     27 C10        39.0080   29.2660   36.5890 C.ar  298  TPI298298   -0.0174
     28 C9         39.9800   29.0300   35.5940 C.ar  298  TPI298298   -0.0533
     29 C8         40.5530   27.7410   35.4590 C.ar  298  TPI298298   -0.0490
     30 H          41.8899   22.9555   32.4828 H     298  TPI298298    0.0325
     31 H          42.3146   24.6457   32.5649 H     298  TPI298298    0.0325
     32 H          44.0908   24.1236   34.1834 H     298  TPI298298    0.0291
     33 H          43.6486   22.4182   34.0889 H     298  TPI298298    0.0291
     34 H          41.3498   23.0612   34.9780 H     298  TPI298298    0.0595
     35 H          41.4633   21.4689   36.5676 H     298  TPI298298    0.1450
     36 H          42.6070   21.5061   37.8319 H     298  TPI298298    0.1450
     37 H          42.0947   25.7009   34.5531 H     298  TPI298298    0.1498
     38 H          38.8945   26.1698   37.9294 H     298  TPI298298    0.0631
     39 H          37.3998   27.6442   39.0785 H     298  TPI298298    0.0624
     40 H          36.3551   29.8163   39.3172 H     298  TPI298298    0.0622
     41 H          38.7957   33.9931   37.4638 H     298  TPI298298    0.2199
     42 H          38.1874   31.8618   40.3587 H     298  TPI298298    0.2199
     43 H          38.6707   31.3140   36.1150 H     298  TPI298298    0.0628
     44 H          40.2731   29.7945   34.9658 H     298  TPI298298    0.0624
     45 H          41.2694   27.5701   34.7361 H     298  TPI298298    0.0625
@<TRIPOS>UNITY_ATOM_ATTR
1 1
charge -1
@<TRIPOS>BOND
     1     1     2   ar
     2     2     3   ar
     3     2     4    1
     4     4     5    1
     5     5     6    1
     6     6    10    1
     7     6     7    1
     8    10    11   am
     9    29    28   ar
    10    29    13   ar
    11    28    27   ar
    12    11    13    1
    13    11    12    2
    14    13    14   ar
    15     7     9    2
    16     7     8   am
    17    27    26   ar
    18    27    15   ar
    19    25    19    1
    20    26    18   ar
    21    14    15   ar
    22    15    16   ar
    23    18    19    1
    24    18    17   ar
    25    19    24    1
    26    19    20    1
    27    21    20    1
    28    16    17   ar
    29    20    22    2
    30    20    23    1
    31     4    30    1
    32     4    31    1
    33     5    32    1
    34     5    33    1
    35     6    34    1
    36     8    35    1
    37     8    36    1
    38    10    37    1
    39    14    38    1
    40    16    39    1
    41    17    40    1
    42    21    41    1
    43    23    42    1
    44    26    43    1
    45    28    44    1
    46    29    45    1
