@<TRIPOS>MOLECULE
TPI
   45    46     1     0     0
SMALL
bcc


@<TRIPOS>ATOM
      1 O6          43.3920    23.7000    30.3570 o        298 TPI      -0.844300
      2 C17         43.7550    23.4280    31.6070 c        298 TPI       0.911600
      3 O7          44.8800    23.0160    31.8850 o        298 TPI      -0.844300
      4 C16         42.6910    23.6470    32.6410 c3       298 TPI      -0.203400
      5 H14         42.3190    24.6480    32.5650 hc       298 TPI       0.027200
      6 H15         41.8870    22.9600    32.4820 hc       298 TPI       0.027200
      7 C15         43.2930    23.4260    34.0360 c3       298 TPI      -0.078400
      8 H12         43.6760    22.4280    34.0940 hc       298 TPI       0.062200
      9 H13         44.0710    24.1460    34.1800 hc       298 TPI       0.062200
     10 C13         42.2430    23.6240    35.1520 c3       298 TPI       0.036700
     11 C14         42.8230    23.0900    36.4400 c        298 TPI       0.635100
     12 N2          42.2350    21.8940    37.0070 n        298 TPI      -0.663000
     13 H10         42.5910    21.5210    37.8460 hn       298 TPI       0.305000
     14 H11         41.4810    21.4530    36.5520 hn       298 TPI       0.305000
     15 O5          43.7800    23.6220    36.9800 o        298 TPI      -0.639100
     16 H9          41.3500    23.0600    34.9760 h1       298 TPI       0.096700
     17 N1          41.7570    25.0120    35.1700 n        298 TPI      -0.528900
     18 H8          42.0950    25.7010    34.5530 hn       298 TPI       0.322500
     19 C12         40.7300    25.2890    36.1790 c        298 TPI       0.672700
     20 O4          40.3130    24.4230    36.9360 o        298 TPI      -0.614100
     21 C7          40.1470    26.6880    36.3110 ca       298 TPI      -0.111600
     22 C6          39.1880    26.9340    37.3010 ca       298 TPI      -0.077000
     23 H5          38.8950    26.1700    37.9290 ha       298 TPI       0.156000
     24 C11         38.6220    28.2100    37.4470 ca       298 TPI      -0.026000
     25 C5          37.6630    28.4160    38.4460 ca       298 TPI      -0.108000
     26 H4          37.4000    27.6450    39.0790 ha       298 TPI       0.142000
     27 C4          37.0650    29.6680    38.5830 ca       298 TPI      -0.099000
     28 H3          36.3560    29.8160    39.3170 ha       298 TPI       0.143000
     29 C3          37.4180    30.7320    37.7320 ca       298 TPI      -0.185300
     30 C1          36.6700    32.0600    37.8790 c3       298 TPI       0.283700
     31 P           37.4670    33.2620    38.9430 p5       298 TPI       1.505300
     32 O1          38.8970    33.6190    38.3530 oh       298 TPI      -0.757900
     33 H           39.3310    34.2700    38.9270 ho       298 TPI       0.488000
     34 O2          36.6070    34.4630    38.9890 o        298 TPI      -0.828300
     35 O3          37.6220    32.6490    40.3980 oh       298 TPI      -0.757900
     36 H1          38.0530    33.2960    40.9780 ho       298 TPI       0.488000
     37 F1          35.4360    31.7910    38.3640 f        298 TPI      -0.222300
     38 F2          36.5580    32.6230    36.6750 f        298 TPI      -0.222300
     39 C2          38.3990    30.5350    36.7350 ca       298 TPI      -0.049000
     40 H2          38.6700    31.3140    36.1140 ha       298 TPI       0.146000
     41 C10         39.0080    29.2660    36.5890 ca       298 TPI      -0.040000
     42 C9          39.9800    29.0300    35.5940 ca       298 TPI      -0.120000
     43 H7          40.2740    29.7940    34.9670 ha       298 TPI       0.140000
     44 C8          40.5530    27.7410    35.4590 ca       298 TPI      -0.100000
     45 H6          41.2690    27.5700    34.7350 ha       298 TPI       0.161000
@<TRIPOS>BOND
     1     1     2 1   
     2     2     3 1   
     3     2     4 1   
     4     4     5 1   
     5     4     6 1   
     6     4     7 1   
     7     7     8 1   
     8     7     9 1   
     9     7    10 1   
    10    10    11 1   
    11    10    16 1   
    12    10    17 1   
    13    11    12 1   
    14    11    15 2   
    15    12    13 1   
    16    12    14 1   
    17    17    18 1   
    18    17    19 1   
    19    19    20 2   
    20    19    21 1   
    21    21    22 ar  
    22    21    44 ar  
    23    22    23 1   
    24    22    24 ar  
    25    24    25 ar  
    26    24    41 ar  
    27    25    26 1   
    28    25    27 ar  
    29    27    28 1   
    30    27    29 ar  
    31    29    30 1   
    32    29    39 ar  
    33    30    31 1   
    34    30    37 1   
    35    30    38 1   
    36    31    32 1   
    37    31    34 2   
    38    31    35 1   
    39    32    33 1   
    40    35    36 1   
    41    39    40 1   
    42    39    41 ar  
    43    41    42 ar  
    44    42    43 1   
    45    42    44 ar  
    46    44    45 1   
@<TRIPOS>SUBSTRUCTURE
     1 TPI         1 TEMP              0 ****  ****    0 ROOT
