@<TRIPOS>MOLECULE
./divided-files/1bzc/LIGAND.pdb
 29 30 0 0 0
SMALL
GASTEIGER

@<TRIPOS>ATOM
      1  O6        43.3920   23.7000   30.3570 O.co2 298  TPI298     -0.2457
      2  C17       43.7550   23.4280   31.6070 C.2   298  TPI298      0.3649
      3  O7        44.8800   23.0160   31.8850 O.co2 298  TPI298     -0.2457
      4  C16       42.6910   23.6470   32.6410 C.3   298  TPI298      0.1163
      5  C15       43.2930   23.4260   34.0360 C.3   298  TPI298      0.0430
      6  C13       42.2430   23.6240   35.1520 C.3   298  TPI298      0.1752
      7  C14       42.8230   23.0900   36.4400 C.2   298  TPI298      0.2806
      8  N2        42.2350   21.8940   37.0070 N.am  298  TPI298     -0.0863
      9  O5        43.7800   23.6220   36.9800 O.2   298  TPI298     -0.2698
     10  N1        41.7570   25.0120   35.1700 N.am  298  TPI298     -0.1939
     11  C12       40.7300   25.2890   36.1790 C.2   298  TPI298      0.2652
     12  O4        40.3130   24.4230   36.9360 O.2   298  TPI298     -0.2684
     13  C7        40.1470   26.6880   36.3110 C.ar  298  TPI298      0.0551
     14  C6        39.1880   26.9340   37.3010 C.ar  298  TPI298      0.0046
     15  C11       38.6220   28.2100   37.4470 C.ar  298  TPI298      0.0001
     16  C5        37.6630   28.4160   38.4460 C.ar  298  TPI298     -0.0001
     17  C4        37.0650   29.6680   38.5830 C.ar  298  TPI298      0.0014
     18  C3        37.4180   30.7320   37.7320 C.ar  298  TPI298      0.0444
     19  C1        36.6700   32.0600   37.8790 C.3   298  TPI298      0.3249
     20  P         37.4670   33.2620   38.9430 P.3   298  TPI298      0.1831
     21  O1        38.8970   33.6190   38.3530 O.3   298  TPI298     -0.3533
     22  O2        36.6070   34.4630   38.9890 O.2   298  TPI298     -0.4543
     23  O3        37.6220   32.6490   40.3980 O.3   298  TPI298     -0.3533
     24  F1        35.4360   31.7910   38.3640 F     298  TPI298     -0.1920
     25  F2        36.5580   32.6230   36.6750 F     298  TPI298     -0.1920
     26  C2        38.3990   30.5350   36.7350 C.ar  298  TPI298      0.0014
     27  C10       39.0080   29.2660   36.5890 C.ar  298  TPI298     -0.0001
     28  C9        39.9800   29.0300   35.5940 C.ar  298  TPI298      0.0001
     29  C8        40.5530   27.7410   35.4590 C.ar  298  TPI298      0.0046
@<TRIPOS>BOND
     1     1     2   ar
     2     2     3   ar
     3     2     4    1
     4     4     5    1
     5     5     6    1
     6     6    10    1
     7     6     7    1
     8    10    11   am
     9    29    28   ar
    10    29    13   ar
    11    28    27   ar
    12    11    13    1
    13    11    12    2
    14    13    14   ar
    15     7     9    2
    16     7     8   am
    17    27    26   ar
    18    27    15   ar
    19    25    19    1
    20    26    18   ar
    21    14    15   ar
    22    15    16   ar
    23    18    19    1
    24    18    17   ar
    25    19    24    1
    26    19    20    1
    27    21    20    1
    28    16    17   ar
    29    20    22    2
    30    20    23    1
