@<TRIPOS>MOLECULE
OCA
   25    24     1     0     0
SMALL
bcc


@<TRIPOS>ATOM
      1 C8          32.4110    38.8080    38.7930 c3       163 OCA      -0.089100
      2 H12         33.2460    38.2410    38.4380 hc       163 OCA       0.024700
      3 H13         32.7620    39.6940    39.2800 hc       163 OCA       0.024700
      4 H14         31.7870    39.0780    37.9670 hc       163 OCA       0.024700
      5 C7          31.6170    37.9750    39.7730 c3       163 OCA      -0.081400
      6 H10         31.2660    37.0890    39.2860 hc       163 OCA       0.033200
      7 H11         30.7820    38.5410    40.1280 hc       163 OCA       0.033200
      8 C6          32.5060    37.5890    40.9500 c3       163 OCA      -0.080400
      9 H8          32.1780    38.1140    41.8220 hc       163 OCA       0.036200
     10 H9          33.5160    37.8490    40.7090 hc       163 OCA       0.036200
     11 C5          32.4450    36.0960    41.2190 c3       163 OCA      -0.072400
     12 H6          33.0970    35.5940    40.5360 hc       163 OCA       0.028700
     13 H7          31.4310    35.7770    41.0900 hc       163 OCA       0.028700
     14 C4          32.8700    35.7590    42.6440 c3       163 OCA      -0.095400
     15 H4          32.6650    34.7260    42.8360 hc       163 OCA       0.062200
     16 H5          33.9160    35.9550    42.7460 hc       163 OCA       0.062200
     17 C3          32.1120    36.6140    43.6490 c3       163 OCA      -0.046400
     18 H2          32.5940    37.5650    43.7320 hc       163 OCA       0.012200
     19 H3          31.1060    36.7300    43.3050 hc       163 OCA       0.012200
     20 C2          32.0790    35.9500    45.0260 c3       163 OCA      -0.196400
     21 H           32.2570    36.6900    45.7780 hc       163 OCA       0.020200
     22 H1          32.8370    35.1950    45.0640 hc       163 OCA       0.020200
     23 C1          30.7370    35.3050    45.2710 c        163 OCA       0.907600
     24 O2          30.7030    34.2720    45.9700 o        163 OCA      -0.853800
     25 O1          29.7090    35.8170    44.7660 o        163 OCA      -0.853800
@<TRIPOS>BOND
     1     1     2 1   
     2     1     3 1   
     3     1     4 1   
     4     1     5 1   
     5     5     6 1   
     6     5     7 1   
     7     5     8 1   
     8     8     9 1   
     9     8    10 1   
    10     8    11 1   
    11    11    12 1   
    12    11    13 1   
    13    11    14 1   
    14    14    15 1   
    15    14    16 1   
    16    14    17 1   
    17    17    18 1   
    18    17    19 1   
    19    17    20 1   
    20    20    21 1   
    21    20    22 1   
    22    20    23 1   
    23    23    24 1   
    24    23    25 1   
@<TRIPOS>SUBSTRUCTURE
     1 OCA         1 TEMP              0 ****  ****    0 ROOT
