@<TRIPOS>MOLECULE
./divided-files/3acw/LIGAND.pdb
 43 46 0 0 0
SMALL
GASTEIGER

@<TRIPOS>ATOM
      1 C          37.4580   42.3660   39.5890 C.ar    1  UNL1       -0.0540
      2 C          37.0490   43.6500   39.9480 C.ar    1  UNL1       -0.0612
      3 C          37.9700   44.6980   39.9800 C.ar    1  UNL1       -0.0617
      4 C          39.2900   44.3940   39.6520 C.ar    1  UNL1       -0.0612
      5 C          39.6750   43.1060   39.2720 C.ar    1  UNL1       -0.0540
      6 C          38.7680   42.0530   39.2280 C.ar    1  UNL1       -0.0179
      7 C          39.1450   40.7680   38.8540 C.ar    1  UNL1       -0.0179
      8 C          38.2550   39.6950   38.8300 C.ar    1  UNL1       -0.0537
      9 C          38.6510   38.4110   38.4470 C.ar    1  UNL1       -0.0551
     10 C          40.4510   40.4720   38.4710 C.ar    1  UNL1       -0.0537
     11 C          40.8620   39.1930   38.1050 C.ar    1  UNL1       -0.0551
     12 C          39.9720   38.1220   38.0980 C.ar    1  UNL1       -0.0107
     13 C          40.3850   36.7340   37.6820 C.3     1  UNL1        0.1334
     14 O          39.7600   36.4900   36.4180 O.3     1  UNL1       -0.3784
     15 C          41.8940   36.5670   37.5110 C.3     1  UNL1        0.0021
     16 N          42.3280   35.2900   38.1220 N.4     1  UNL1        0.2375
     17 C          42.1610   35.3130   39.5870 C.3     1  UNL1       -0.0314
     18 C          40.7180   35.6570   39.9460 C.3     1  UNL1       -0.0064
     19 C          39.9190   35.6470   38.6490 C.3     1  UNL1        0.0067
     20 C          40.1390   34.2490   38.0820 C.3     1  UNL1       -0.0064
     21 C          41.5700   34.1600   37.5560 C.3     1  UNL1       -0.0314
     22 H          36.7560   41.6096   39.5906 H       1  UNL1        0.0624
     23 H          36.0615   43.8259   40.1909 H       1  UNL1        0.0618
     24 H          37.6859   45.6567   40.2355 H       1  UNL1        0.0618
     25 H          40.0019   45.1402   39.6909 H       1  UNL1        0.0618
     26 H          40.6596   42.9313   39.0169 H       1  UNL1        0.0624
     27 H          37.2728   39.8542   39.1038 H       1  UNL1        0.0624
     28 H          37.9483   37.6557   38.4213 H       1  UNL1        0.0621
     29 H          41.1455   41.2352   38.4579 H       1  UNL1        0.0624
     30 H          41.8452   39.0357   37.8337 H       1  UNL1        0.0621
     31 H          40.0394   37.1679   35.7829 H       1  UNL1        0.2109
     32 H          42.3982   37.3799   37.9903 H       1  UNL1        0.0846
     33 H          42.1335   36.5599   36.4682 H       1  UNL1        0.0846
     34 H          43.3186   35.1703   37.9103 H       1  UNL1        0.2034
     35 H          42.8149   36.0490   40.0060 H       1  UNL1        0.0814
     36 H          42.3989   34.3472   39.9814 H       1  UNL1        0.0814
     37 H          40.3251   34.9290   40.6247 H       1  UNL1        0.0321
     38 H          40.6616   36.6143   40.4206 H       1  UNL1        0.0321
     39 H          38.8829   35.8586   38.8123 H       1  UNL1        0.0337
     40 H          39.9910   33.5200   38.8511 H       1  UNL1        0.0321
     41 H          39.4446   34.0607   37.2900 H       1  UNL1        0.0321
     42 H          41.5697   34.2203   36.4877 H       1  UNL1        0.0814
     43 H          42.0162   33.2301   37.8408 H       1  UNL1        0.0814
@<TRIPOS>UNITY_ATOM_ATTR
16 1
charge 1
@<TRIPOS>BOND
     1    14    13    1
     2    15    13    1
     3    15    16    1
     4    21    20    1
     5    21    16    1
     6    13    12    1
     7    13    19    1
     8    20    19    1
     9    12    11   ar
    10    12     9   ar
    11    11    10   ar
    12    16    17    1
    13     9     8   ar
    14    10     7   ar
    15    19    18    1
    16     8     7   ar
    17     7     6    1
    18     6     5   ar
    19     6     1   ar
    20     5     4   ar
    21    17    18    1
    22     1     2   ar
    23     4     3   ar
    24     2     3   ar
    25     1    22    1
    26     2    23    1
    27     3    24    1
    28     4    25    1
    29     5    26    1
    30     8    27    1
    31     9    28    1
    32    10    29    1
    33    11    30    1
    34    14    31    1
    35    15    32    1
    36    15    33    1
    37    16    34    1
    38    17    35    1
    39    17    36    1
    40    18    37    1
    41    18    38    1
    42    19    39    1
    43    20    40    1
    44    20    41    1
    45    21    42    1
    46    21    43    1
