@<TRIPOS>MOLECULE
./divided-files/3acw/LIGAND.pdb
 21 24 0 0 0
SMALL
GASTEIGER

@<TRIPOS>ATOM
      1  CAE       37.4580   42.3660   39.5890 C.ar  285  LIG285     -0.0000
      2  CAC       37.0490   43.6500   39.9480 C.ar  285  LIG285      0.0000
      3  CAB       37.9700   44.6980   39.9800 C.ar  285  LIG285      0.0000
      4  CAD       39.2900   44.3940   39.6520 C.ar  285  LIG285      0.0000
      5  CAF       39.6750   43.1060   39.2720 C.ar  285  LIG285     -0.0000
      6  CAP       38.7680   42.0530   39.2280 C.ar  285  LIG285     -0.0000
      7  CAQ       39.1450   40.7680   38.8540 C.ar  285  LIG285     -0.0000
      8  CAH       38.2550   39.6950   38.8300 C.ar  285  LIG285     -0.0002
      9  CAJ       38.6510   38.4110   38.4470 C.ar  285  LIG285     -0.0019
     10  CAG       40.4510   40.4720   38.4710 C.ar  285  LIG285     -0.0002
     11  CAI       40.8620   39.1930   38.1050 C.ar  285  LIG285     -0.0019
     12  CAR       39.9720   38.1220   38.0980 C.ar  285  LIG285      0.0064
     13  CAU       40.3850   36.7340   37.6820 C.3   285  LIG285      0.1599
     14  OAA       39.7600   36.4900   36.4180 O.3   285  LIG285     -0.2197
     15  CAO       41.8940   36.5670   37.5110 C.3   285  LIG285      0.1071
     16  NAT       42.3280   35.2900   38.1220 N.4   285  LIG285     -0.2704
     17  CAM       42.1610   35.3130   39.5870 C.3   285  LIG285      0.0723
     18  CAK       40.7180   35.6570   39.9460 C.3   285  LIG285      0.0202
     19  CAS       39.9190   35.6470   38.6490 C.3   285  LIG285      0.0361
     20  CAL       40.1390   34.2490   38.0820 C.3   285  LIG285      0.0202
     21  CAN       41.5700   34.1600   37.5560 C.3   285  LIG285      0.0723
@<TRIPOS>BOND
     1    14    13    1
     2    15    13    1
     3    15    16    1
     4    21    20    1
     5    21    16    1
     6    13    12    1
     7    13    19    1
     8    20    19    1
     9    12    11   ar
    10    12     9   ar
    11    11    10   ar
    12    16    17    1
    13     9     8   ar
    14    10     7   ar
    15    19    18    1
    16     8     7   ar
    17     7     6    1
    18     6     5   ar
    19     6     1   ar
    20     5     4   ar
    21    17    18    1
    22     1     2   ar
    23     4     3   ar
    24     2     3   ar
