@<TRIPOS>MOLECULE
./divided-files/3uo4/LIGAND.pdb
 46 49 0 0 0
SMALL
GASTEIGER

@<TRIPOS>ATOM
      1 O28        34.1320   56.4000   45.0820 O.co2 267  0C0267267   -0.5446
      2 C22        32.8720   56.3920   45.0800 C.2   267  0C0267267    0.0717
      3 O29        32.2310   57.4230   45.4260 O.co2 267  0C0267267   -0.5446
      4 C19        32.1410   55.1570   44.6680 C.ar  267  0C0267267   -0.0026
      5 C20        32.8020   54.1430   43.9820 C.ar  267  0C0267267   -0.0511
      6 C21        32.1150   52.9970   43.6020 C.ar  267  0C0267267   -0.0399
      7 C18        30.7950   55.0230   44.9760 C.ar  267  0C0267267   -0.0511
      8 C17        30.1110   53.8800   44.5920 C.ar  267  0C0267267   -0.0399
      9 C16        30.7650   52.8690   43.9010 C.ar  267  0C0267267    0.0336
     10 N04        30.0170   51.7000   43.5420 N.pl3 267  0C0267267   -0.2836
     11 C06        30.2460   50.8560   42.4020 C.ar  267  0C0267267    0.2212
     12 N02        31.4410   50.8070   41.7980 N.ar  267  0C0267267   -0.1992
     13 N01        29.2120   50.1140   41.9920 N.ar  267  0C0267267   -0.2225
     14 C05        29.3530   49.2950   40.9370 C.ar  267  0C0267267    0.0344
     15 C08        30.5730   49.2140   40.2730 C.ar  267  0C0267267   -0.0033
     16 C07        31.6300   49.9980   40.7350 C.ar  267  0C0267267    0.1280
     17 N03        32.9000   49.9250   40.0590 N.pl3 267  0C0267267   -0.2988
     18 C09        34.0420   50.6830   40.4910 C.ar  267  0C0267267    0.0402
     19 C10        33.9720   52.0670   40.5420 C.ar  267  0C0267267   -0.0399
     20 C11        35.0740   52.8020   40.9530 C.ar  267  0C0267267   -0.0600
     21 C12        36.2520   52.1690   41.3130 C.ar  267  0C0267267   -0.0611
     22 C13        36.3240   50.7860   41.2580 C.ar  267  0C0267267   -0.0523
     23 C14        35.2250   50.0420   40.8480 C.ar  267  0C0267267    0.0033
     24 C15        35.3390   48.5530   40.8080 C.ar  267  0C0267267   -0.0161
     25 C23        35.4790   47.8880   39.5980 C.ar  267  0C0267267   -0.0540
     26 C24        35.5890   46.5070   39.5790 C.ar  267  0C0267267   -0.0612
     27 C25        35.5620   45.7930   40.7680 C.ar  267  0C0267267   -0.0617
     28 C26        35.4240   46.4540   41.9780 C.ar  267  0C0267267   -0.0612
     29 C27        35.3160   47.8360   41.9950 C.ar  267  0C0267267   -0.0540
     30 H          33.8039   54.2424   43.7552 H     267  0C0267267    0.0625
     31 H          32.6069   52.2423   43.0985 H     267  0C0267267    0.0636
     32 H          30.3044   55.7719   45.4894 H     267  0C0267267    0.0625
     33 H          29.1097   53.7801   44.8212 H     267  0C0267267    0.0636
     34 H          29.2723   51.4507   44.1357 H     267  0C0267267    0.1550
     35 H          28.5545   48.7243   40.6180 H     267  0C0267267    0.0832
     36 H          30.6927   48.5900   39.4598 H     267  0C0267267    0.0667
     37 H          32.9886   49.3362   39.2749 H     267  0C0267267    0.1536
     38 H          33.1002   52.5499   40.2742 H     267  0C0267267    0.0636
     39 H          35.0155   53.8316   40.9910 H     267  0C0267267    0.0618
     40 H          37.0681   52.7216   41.6192 H     267  0C0267267    0.0618
     41 H          37.1986   50.3065   41.5230 H     267  0C0267267    0.0624
     42 H          35.5011   48.4208   38.7145 H     267  0C0267267    0.0624
     43 H          35.6910   46.0097   38.6805 H     267  0C0267267    0.0618
     44 H          35.6451   44.7645   40.7513 H     267  0C0267267    0.0618
     45 H          35.4018   45.9207   42.8612 H     267  0C0267267    0.0618
     46 H          35.2181   48.3331   42.8941 H     267  0C0267267    0.0624
@<TRIPOS>UNITY_ATOM_ATTR
1 1
charge -1
@<TRIPOS>BOND
     1    26    25   ar
     2    26    27   ar
     3    25    24   ar
     4    17    18    1
     5    17    16    1
     6    15    16   ar
     7    15    14   ar
     8    18    19   ar
     9    18    23   ar
    10    19    20   ar
    11    16    12   ar
    12    27    28   ar
    13    24    23    1
    14    24    29   ar
    15    23    22   ar
    16    14    13   ar
    17    20    21   ar
    18    22    21   ar
    19    12    11   ar
    20    28    29   ar
    21    13    11   ar
    22    11    10    1
    23    10     9    1
    24     6     9   ar
    25     6     5   ar
    26     9     8   ar
    27     5     4   ar
    28     8     7   ar
    29     4     7   ar
    30     4     2    1
    31     2     1   ar
    32     2     3   ar
    33     5    30    1
    34     6    31    1
    35     7    32    1
    36     8    33    1
    37    10    34    1
    38    14    35    1
    39    15    36    1
    40    17    37    1
    41    19    38    1
    42    20    39    1
    43    21    40    1
    44    22    41    1
    45    25    42    1
    46    26    43    1
    47    27    44    1
    48    28    45    1
    49    29    46    1
