@<TRIPOS>MOLECULE
./divided-files/3uo4/LIGAND.pdb
 29 32 0 0 0
SMALL
GASTEIGER

@<TRIPOS>ATOM
      1  O28       34.1320   56.4000   45.0820 O.co2 267  0C0267     -0.2406
      2  C22       32.8720   56.3920   45.0800 C.2   267  0C0267      0.3878
      3  O29       32.2310   57.4230   45.4260 O.co2 267  0C0267     -0.2406
      4  C19       32.1410   55.1570   44.6680 C.ar  267  0C0267      0.0799
      5  C20       32.8020   54.1430   43.9820 C.ar  267  0C0267      0.0079
      6  C21       32.1150   52.9970   43.6020 C.ar  267  0C0267      0.0168
      7  C18       30.7950   55.0230   44.9760 C.ar  267  0C0267      0.0079
      8  C17       30.1110   53.8800   44.5920 C.ar  267  0C0267      0.0168
      9  C16       30.7650   52.8690   43.9010 C.ar  267  0C0267      0.0736
     10  N04       30.0170   51.7000   43.5420 N.pl3 267  0C0267     -0.1776
     11  C06       30.2460   50.8560   42.4020 C.ar  267  0C0267      0.2421
     12  N02       31.4410   50.8070   41.7980 N.ar  267  0C0267     -0.1954
     13  N01       29.2120   50.1140   41.9920 N.ar  267  0C0267     -0.2105
     14  C05       29.3530   49.2950   40.9370 C.ar  267  0C0267      0.1048
     15  C08       30.5730   49.2140   40.2730 C.ar  267  0C0267      0.0569
     16  C07       31.6300   49.9980   40.7350 C.ar  267  0C0267      0.1562
     17  N03       32.9000   49.9250   40.0590 N.pl3 267  0C0267     -0.1940
     18  C09       34.0420   50.6830   40.4910 C.ar  267  0C0267      0.0721
     19  C10       33.9720   52.0670   40.5420 C.ar  267  0C0267      0.0166
     20  C11       35.0740   52.8020   40.9530 C.ar  267  0C0267      0.0013
     21  C12       36.2520   52.1690   41.3130 C.ar  267  0C0267      0.0001
     22  C13       36.3240   50.7860   41.2580 C.ar  267  0C0267      0.0013
     23  C14       35.2250   50.0420   40.8480 C.ar  267  0C0267      0.0153
     24  C15       35.3390   48.5530   40.8080 C.ar  267  0C0267      0.0013
     25  C23       35.4790   47.8880   39.5980 C.ar  267  0C0267      0.0000
     26  C24       35.5890   46.5070   39.5790 C.ar  267  0C0267      0.0000
     27  C25       35.5620   45.7930   40.7680 C.ar  267  0C0267      0.0000
     28  C26       35.4240   46.4540   41.9780 C.ar  267  0C0267      0.0000
     29  C27       35.3160   47.8360   41.9950 C.ar  267  0C0267      0.0000
@<TRIPOS>BOND
     1    26    25   ar
     2    26    27   ar
     3    25    24   ar
     4    17    18    1
     5    17    16    1
     6    15    16   ar
     7    15    14   ar
     8    18    19   ar
     9    18    23   ar
    10    19    20   ar
    11    16    12   ar
    12    27    28   ar
    13    24    23    1
    14    24    29   ar
    15    23    22   ar
    16    14    13   ar
    17    20    21   ar
    18    22    21   ar
    19    12    11   ar
    20    28    29   ar
    21    13    11   ar
    22    11    10    1
    23    10     9    1
    24     6     9   ar
    25     6     5   ar
    26     9     8   ar
    27     5     4   ar
    28     8     7   ar
    29     4     7   ar
    30     4     2    1
    31     2     1   ar
    32     2     3   ar
