@<TRIPOS>MOLECULE
./divided-files/6dy7/LIGAND.pdb
 31 32 0 0 0
SMALL
GASTEIGER

@<TRIPOS>ATOM
      1 Cl2        32.7650   26.7830   43.3040 Cl    305  HH7305305   -0.0797
      2 C04        31.3750   26.3550   42.2760 C.ar  305  HH7305305    0.0839
      3 C03        30.9240   24.9070   42.1820 C.ar  305  HH7305305   -0.0215
      4 C02        29.7410   24.5330   41.3100 C.ar  305  HH7305305    0.0426
      5 Cl1        29.2250   22.8290   41.2130 Cl    305  HH7305305   -0.0835
      6 C18        28.9990   25.6140   40.5230 C.ar  305  HH7305305   -0.0398
      7 C17        29.4490   27.0780   40.6130 C.ar  305  HH7305305   -0.0171
      8 C06        30.6470   27.4490   41.5000 C.ar  305  HH7305305    0.1388
      9 O07        31.0970   28.7760   41.6150 O.3   305  HH7305305   -0.4904
     10 C08        30.3270   29.7390   40.9510 C.3   305  HH7305305    0.0911
     11 C09        30.9080   29.9630   39.5570 C.3   305  HH7305305   -0.0030
     12 C10        32.1790   30.8040   39.6490 C.3   305  HH7305305    0.0148
     13 N11        31.9090   32.0940   40.2620 N.pl3 305  HH7305305   -0.3149
     14 C12        31.6300   33.2430   39.4270 C.ar  305  HH7305305    0.1929
     15 N13        31.5790   33.2390   37.9610 N.ar  305  HH7305305   -0.2231
     16 C14        31.2750   34.5770   37.5200 C.ar  305  HH7305305    0.0471
     17 C15        31.1230   35.4450   38.7480 C.ar  305  HH7305305    0.0228
     18 N16        31.3530   34.5990   39.9030 N.ar  305  HH7305305   -0.3328
     19 H          31.4238   24.1765   42.7127 H     305  HH7305305    0.0648
     20 H          28.1939   25.3582   39.9301 H     305  HH7305305    0.0633
     21 H          28.9503   27.8085   40.0813 H     305  HH7305305    0.0655
     22 H          29.3168   29.3962   40.8681 H     305  HH7305305    0.0697
     23 H          30.3416   30.6566   41.5011 H     305  HH7305305    0.0697
     24 H          31.1404   29.0172   39.1140 H     305  HH7305305    0.0313
     25 H          30.1887   30.4788   38.9558 H     305  HH7305305    0.0313
     26 H          32.5674   30.9594   38.6642 H     305  HH7305305    0.0463
     27 H          32.8894   30.2815   40.2550 H     305  HH7305305    0.0463
     28 H          31.9159   32.1860   41.2422 H     305  HH7305305    0.1488
     29 H          31.1783   34.8871   36.5405 H     305  HH7305305    0.0845
     30 H          30.8976   36.4520   38.7619 H     305  HH7305305    0.0823
     31 H          31.3273   34.8868   40.8441 H     305  HH7305305    0.1680
@<TRIPOS>BOND
     1    16    15   ar
     2    16    17   ar
     3    15    14   ar
     4    17    18   ar
     5    14    18   ar
     6    14    13    1
     7    11    12    1
     8    11    10    1
     9    12    13    1
    10     6     7   ar
    11     6     4   ar
    12     7     8   ar
    13    10     9    1
    14     5     4    1
    15     4     3   ar
    16     8     9    1
    17     8     2   ar
    18     3     2   ar
    19     2     1    1
    20     3    19    1
    21     6    20    1
    22     7    21    1
    23    10    22    1
    24    10    23    1
    25    11    24    1
    26    11    25    1
    27    12    26    1
    28    12    27    1
    29    13    28    1
    30    16    29    1
    31    17    30    1
    32    18    31    1
