@<TRIPOS>MOLECULE
./divided-files/6dy7/LIGAND.pdb
 18 19 0 0 0
SMALL
GASTEIGER

@<TRIPOS>ATOM
      1 Cl2        32.7650   26.7830   43.3040 Cl    305  HH7305     -0.0791
      2  C04       31.3750   26.3550   42.2760 C.ar  305  HH7305      0.0924
      3  C03       30.9240   24.9070   42.1820 C.ar  305  HH7305      0.0258
      4  C02       29.7410   24.5330   41.3100 C.ar  305  HH7305      0.0587
      5 Cl1        29.2250   22.8290   41.2130 Cl    305  HH7305     -0.0822
      6  C18       28.9990   25.6140   40.5230 C.ar  305  HH7305      0.0146
      7  C17       29.4490   27.0780   40.6130 C.ar  305  HH7305      0.0386
      8  C06       30.6470   27.4490   41.5000 C.ar  305  HH7305      0.1490
      9  O07       31.0970   28.7760   41.6150 O.3   305  HH7305     -0.4745
     10  C08       30.3270   29.7390   40.9510 C.3   305  HH7305      0.2073
     11  C09       30.9080   29.9630   39.5570 C.3   305  HH7305      0.0707
     12  C10       32.1790   30.8040   39.6490 C.3   305  HH7305      0.1192
     13  N11       31.9090   32.0940   40.2620 N.pl3 305  HH7305     -0.2037
     14  C12       31.6300   33.2430   39.4270 C.ar  305  HH7305      0.2367
     15  N13       31.5790   33.2390   37.9610 N.ar  305  HH7305     -0.2093
     16  C14       31.2750   34.5770   37.5200 C.ar  305  HH7305      0.1226
     17  C15       31.1230   35.4450   38.7480 C.ar  305  HH7305      0.1226
     18  N16       31.3530   34.5990   39.9030 N.ar  305  HH7305     -0.2093
@<TRIPOS>BOND
     1    16    15   ar
     2    16    17   ar
     3    15    14   ar
     4    17    18   ar
     5    14    18   ar
     6    14    13    1
     7    11    12    1
     8    11    10    1
     9    12    13    1
    10     6     7   ar
    11     6     4   ar
    12     7     8   ar
    13    10     9    1
    14     5     4    1
    15     4     3   ar
    16     8     9    1
    17     8     2   ar
    18     3     2   ar
    19     2     1    1
