@<TRIPOS>MOLECULE
M1S
   45    46     1     0     0
SMALL
bcc


@<TRIPOS>ATOM
      1 O4          41.8360    35.6970    35.1840 oh       215 M1S      -0.472100
      2 H20         41.4120    36.2220    35.8350 ho       215 M1S       0.432000
      3 C5          43.0750    36.0560    34.7130 ca       215 M1S       0.205100
      4 C4          43.7150    37.1860    35.2280 ca       215 M1S      -0.273000
      5 H           43.2620    37.7860    35.9350 ha       215 M1S       0.165000
      6 C3          44.9860    37.4670    34.7470 ca       215 M1S       0.241100
      7 O3          45.6250    38.5980    35.2250 oh       215 M1S      -0.498100
      8 H19         46.4840    38.8150    34.9200 ho       215 M1S       0.465000
      9 C2          45.6050    36.6610    33.7760 ca       215 M1S      -0.247600
     10 C1          46.9980    37.0140    33.3430 c        215 M1S       0.661700
     11 O2          47.4260    38.1360    33.1850 o        215 M1S      -0.580000
     12 O1          47.8180    35.8700    33.2370 os       215 M1S      -0.425900
     13 C18         49.2050    36.0900    32.8710 c3       215 M1S       0.139400
     14 H17         49.4800    35.4280    32.0760 h1       215 M1S       0.072200
     15 H18         49.3460    37.0970    32.5400 h1       215 M1S       0.072200
     16 C17         50.0700    35.8110    34.0960 c3       215 M1S      -0.074200
     17 H15         51.0940    35.9490    33.8190 hc       215 M1S       0.061700
     18 H16         49.7410    36.4910    34.8560 hc       215 M1S       0.061700
     19 C16         49.9230    34.4240    34.6780 c2       215 M1S      -0.176200
     20 H14         50.2260    33.6040    34.1300 ha       215 M1S       0.124000
     21 C15         49.4060    34.2520    35.8920 c2       215 M1S      -0.157200
     22 H13         49.0920    35.0690    36.4380 ha       215 M1S       0.119000
     23 C14         49.2770    32.8620    36.4750 c3       215 M1S      -0.049200
     24 H11         49.8340    32.8060    37.3870 hc       215 M1S       0.047700
     25 H12         49.6590    32.1500    35.7740 hc       215 M1S       0.047700
     26 C13         47.8080    32.5510    36.7580 c3       215 M1S      -0.074400
     27 H9          47.2260    33.4330    36.5940 hc       215 M1S       0.040200
     28 H10         47.7180    32.2260    37.7740 hc       215 M1S       0.040200
     29 C12         47.2980    31.4370    35.8440 c3       215 M1S      -0.075400
     30 H7          46.3050    31.1770    36.1450 hc       215 M1S       0.040700
     31 H8          47.9710    30.6100    35.9380 hc       215 M1S       0.040700
     32 C11         47.2730    31.8440    34.3790 c3       215 M1S      -0.074400
     33 H5          46.9550    31.0070    33.7930 hc       215 M1S       0.054700
     34 H6          48.2580    32.1550    34.1020 hc       215 M1S       0.054700
     35 C10         46.3140    33.0150    34.1330 c3       215 M1S      -0.177400
     36 H3          46.5660    33.8200    34.7910 hc       215 M1S       0.075200
     37 H4          45.3130    32.6840    34.3180 hc       215 M1S       0.075200
     38 C9          46.4100    33.4900    32.7110 c        215 M1S       0.592100
     39 O5          47.1470    32.9470    31.8840 o        215 M1S      -0.539100
     40 C8          45.5710    34.6190    32.1890 c3       215 M1S      -0.163100
     41 H1          44.7670    34.1980    31.6220 hc       215 M1S       0.097700
     42 H2          46.2290    35.2330    31.6110 hc       215 M1S       0.097700
     43 C7          44.9660    35.5380    33.2590 ca       215 M1S       0.062700
     44 C6          43.6980    35.2950    33.7630 ca       215 M1S      -0.074600
     45 CL1         42.7820    33.9310    33.1040 cl       215 M1S      -0.055400
@<TRIPOS>BOND
     1     1     2 1   
     2     1     3 1   
     3     3     4 ar  
     4     3    44 ar  
     5     4     5 1   
     6     4     6 ar  
     7     6     7 1   
     8     6     9 ar  
     9     7     8 1   
    10     9    10 1   
    11     9    43 ar  
    12    10    11 2   
    13    10    12 1   
    14    12    13 1   
    15    13    14 1   
    16    13    15 1   
    17    13    16 1   
    18    16    17 1   
    19    16    18 1   
    20    16    19 1   
    21    19    20 1   
    22    19    21 2   
    23    21    22 1   
    24    21    23 1   
    25    23    24 1   
    26    23    25 1   
    27    23    26 1   
    28    26    27 1   
    29    26    28 1   
    30    26    29 1   
    31    29    30 1   
    32    29    31 1   
    33    29    32 1   
    34    32    33 1   
    35    32    34 1   
    36    32    35 1   
    37    35    36 1   
    38    35    37 1   
    39    35    38 1   
    40    38    39 2   
    41    38    40 1   
    42    40    41 1   
    43    40    42 1   
    44    40    43 1   
    45    43    44 ar  
    46    44    45 1   
@<TRIPOS>SUBSTRUCTURE
     1 M1S         1 TEMP              0 ****  ****    0 ROOT
