@<TRIPOS>MOLECULE
HH7
   31    32     1     0     0
SMALL
bcc


@<TRIPOS>ATOM
      1 CL2         32.7650    26.7830    43.3040 cl       305 HH7      -0.066400
      2 C04         31.3750    26.3550    42.2760 ca       305 HH7      -0.008600
      3 C03         30.9240    24.9070    42.1820 ca       305 HH7      -0.092000
      4 H1          31.4240    24.1770    42.7130 ha       305 HH7       0.163000
      5 C02         29.7410    24.5330    41.3100 ca       305 HH7      -0.013600
      6 CL1         29.2250    22.8290    41.2130 cl       305 HH7      -0.087400
      7 C18         28.9990    25.6140    40.5230 ca       305 HH7      -0.088000
      8 H12         28.1940    25.3580    39.9300 ha       305 HH7       0.151000
      9 C17         29.4490    27.0780    40.6130 ca       305 HH7      -0.194000
     10 H11         28.9500    27.8080    40.0830 ha       305 HH7       0.148000
     11 C06         30.6470    27.4490    41.5000 ca       305 HH7       0.139100
     12 O07         31.0970    28.7760    41.6150 os       305 HH7      -0.318900
     13 C08         30.3270    29.7390    40.9510 c3       305 HH7       0.127400
     14 H2          29.3170    29.3970    40.8690 h1       305 HH7       0.064200
     15 H3          30.3420    30.6570    41.5020 h1       305 HH7       0.064200
     16 C09         30.9080    29.9630    39.5570 c3       305 HH7      -0.153400
     17 H4          31.1410    29.0170    39.1130 hc       305 HH7       0.068200
     18 H5          30.1890    30.4780    38.9550 hc       305 HH7       0.068200
     19 C10         32.1790    30.8040    39.6490 c3       305 HH7       0.164800
     20 H6          32.9020    30.2810    40.2390 h1       305 HH7       0.065700
     21 H7          32.5500    30.9700    38.6600 h1       305 HH7       0.065700
     22 N11         31.9090    32.0940    40.2620 nh       305 HH7      -0.784900
     23 H           31.9170    32.1860    41.2420 hn       305 HH7       0.395800
     24 C12         31.6300    33.2430    39.4270 cc       305 HH7       0.543400
     25 N13         31.5790    33.2390    37.9610 nd       305 HH7      -0.692000
     26 C14         31.2750    34.5770    37.5200 cd       305 HH7       0.297200
     27 H8          31.1780    34.8880    36.5410 h4       305 HH7       0.042100
     28 C15         31.1230    35.4450    38.7480 cc       305 HH7      -0.259600
     29 H9          30.8970    36.4520    38.7620 h4       305 HH7       0.178000
     30 N16         31.3530    34.5990    39.9030 na       305 HH7      -0.296900
     31 H10         31.3270    34.8870    40.8440 hn       305 HH7       0.307700
@<TRIPOS>BOND
     1     1     2 1   
     2     2     3 ar  
     3     2    11 ar  
     4     3     4 1   
     5     3     5 ar  
     6     5     6 1   
     7     5     7 ar  
     8     7     8 1   
     9     7     9 ar  
    10     9    10 1   
    11     9    11 ar  
    12    11    12 1   
    13    12    13 1   
    14    13    14 1   
    15    13    15 1   
    16    13    16 1   
    17    16    17 1   
    18    16    18 1   
    19    16    19 1   
    20    19    20 1   
    21    19    21 1   
    22    19    22 1   
    23    22    23 1   
    24    22    24 1   
    25    24    25 2   
    26    24    30 1   
    27    25    26 1   
    28    26    27 1   
    29    26    28 2   
    30    28    29 1   
    31    28    30 1   
    32    30    31 1   
@<TRIPOS>SUBSTRUCTURE
     1 HH7         1 TEMP              0 ****  ****    0 ROOT
