@<TRIPOS>MOLECULE
N0S
   77    82     1     0     0
SMALL
bcc


@<TRIPOS>ATOM
      1 C18         39.1680    38.1270    36.2220 c3       153 N0S      -0.072400
      2 H           40.1000    38.4690    35.8230 hc       153 N0S       0.051700
      3 H1          38.6860    38.8980    36.7850 hc       153 N0S       0.051700
      4 C12         39.4350    36.9420    37.1670 c3       153 N0S      -0.075400
      5 H2          40.1670    37.2190    37.8950 hc       153 N0S       0.044700
      6 H3          39.8010    36.1050    36.6090 hc       153 N0S       0.044700
      7 C11         38.1450    36.5770    37.8560 c3       153 N0S      -0.039100
      8 H4          37.8740    37.3630    38.5290 hc       153 N0S       0.055200
      9 H5          38.2910    35.6610    38.3880 hc       153 N0S       0.055200
     10 C10         37.0190    36.3750    36.8460 ca       153 N0S      -0.055300
     11 C16         35.9250    35.6130    37.2600 ca       153 N0S      -0.133000
     12 H6          35.8970    35.2320    38.2190 ha       153 N0S       0.147000
     13 C15         34.8770    35.3660    36.3870 ca       153 N0S       0.023400
     14 CL1         33.5350    34.4220    36.9040 cl       153 N0S      -0.094400
     15 C14         34.8770    35.8760    35.0920 ca       153 N0S      -0.130000
     16 H7          34.0870    35.6980    34.4530 ha       153 N0S       0.149000
     17 C13         35.9730    36.6330    34.6810 ca       153 N0S      -0.115000
     18 H8          35.9980    37.0170    33.7240 ha       153 N0S       0.158000
     19 C19         37.0340    36.8780    35.5480 ca       153 N0S      -0.079300
     20 C8          38.2420    37.7340    35.0580 c3       153 N0S      -0.035700
     21 C9          37.7190    39.0520    34.4100 c3       153 N0S       0.138400
     22 O1          37.3190    38.8740    33.0130 os       153 N0S      -0.339900
     23 H11         38.4960    39.7870    34.4530 h1       153 N0S       0.066700
     24 H12         36.8530    39.3590    34.9580 h1       153 N0S       0.066700
     25 C7          39.0580    36.9640    34.0060 c3       153 N0S       0.215800
     26 H9          39.5470    36.1350    34.4730 h1       153 N0S       0.059700
     27 H10         38.4010    36.6110    33.2390 h1       153 N0S       0.059700
     28 N1          40.0790    37.8660    33.4020 nh       153 N0S      -0.677000
     29 C20         41.4260    37.2250    33.4010 c3       153 N0S       0.221800
     30 H16         41.5480    36.7530    34.3540 h1       153 N0S       0.058700
     31 H17         42.0910    38.0310    33.1750 h1       153 N0S       0.058700
     32 C1          39.6640    38.5620    32.3170 ca       153 N0S       0.138600
     33 C6          40.5650    38.8940    31.3120 ca       153 N0S      -0.136000
     34 H15         41.5540    38.6130    31.3990 ha       153 N0S       0.158000
     35 C2          38.3360    39.0140    32.1440 ca       153 N0S       0.080100
     36 C3          37.9260    39.7510    31.0400 ca       153 N0S      -0.119000
     37 H13         36.9520    40.0860    30.9690 ha       153 N0S       0.155000
     38 C4          38.8360    40.0330    30.0370 ca       153 N0S      -0.123000
     39 H14         38.5500    40.5510    29.1920 ha       153 N0S       0.143000
     40 C5          40.1490    39.5980    30.1970 ca       153 N0S      -0.135600
     41 C17         41.1520    39.8690    29.1150 c        153 N0S       0.710700
     42 O2          42.2940    40.2250    29.3800 o        153 N0S      -0.582100
     43 N2          40.6780    39.6170    27.9000 n        153 N0S      -0.675300
     44 H36         39.7550    39.2900    27.7990 hn       153 N0S       0.342500
     45 S1          41.5880    39.8380    26.5880 s6       153 N0S       1.432600
     46 O3          40.7690    39.4370    25.3910 o        153 N0S      -0.635800
     47 O4          42.0140    41.2770    26.5100 o        153 N0S      -0.635800
     48 C26         43.0220    38.7370    26.7680 c3       153 N0S      -0.279900
     49 C31         43.9550    38.7670    25.5640 c3       153 N0S      -0.086100
     50 H33         43.4260    38.4370    24.6940 hc       153 N0S       0.058367
     51 H34         44.7880    38.1190    25.7410 hc       153 N0S       0.058367
     52 H35         44.3060    39.7650    25.4090 hc       153 N0S       0.058367
     53 H32         43.6310    39.0780    27.5800 h1       153 N0S       0.139700
     54 C30         42.4910    37.3190    27.0670 c3       153 N0S      -0.040400
     55 H30         42.1880    36.8620    26.1490 hc       153 N0S       0.050700
     56 H31         41.6660    37.4110    27.7430 hc       153 N0S       0.050700
     57 C25         43.5480    36.4440    27.7270 c3       153 N0S      -0.049200
     58 H28         43.1950    35.4340    27.7410 hc       153 N0S       0.056200
     59 H29         44.4490    36.5410    27.1590 hc       153 N0S       0.056200
     60 C24         43.8290    36.8380    29.0370 c2       153 N0S      -0.151200
     61 H27         44.0550    37.8210    29.2540 ha       153 N0S       0.137000
     62 C23         43.8000    35.8820    30.0410 c2       153 N0S      -0.209200
     63 H26         43.5200    34.9150    29.8120 ha       153 N0S       0.122000
     64 C27         44.1720    36.2320    31.4730 c3       153 N0S       0.182300
     65 O5          45.4480    35.6440    31.7450 oh       153 N0S      -0.587800
     66 H25         45.3830    34.6800    31.6680 ho       153 N0S       0.397000
     67 H24         44.1640    37.3000    31.5380 h1       153 N0S       0.082700
     68 C22         43.1950    35.7110    32.5310 cy       153 N0S      -0.108700
     69 H23         43.7440    35.9960    33.4030 hc       153 N0S       0.069700
     70 C21         41.7540    36.1690    32.3330 cy       153 N0S      -0.114700
     71 H18         41.3660    36.6160    31.4410 hc       153 N0S       0.074700
     72 C28         41.3480    34.7250    32.7340 cy       153 N0S      -0.085400
     73 H19         40.5580    34.3100    32.1440 hc       153 N0S       0.052200
     74 H20         40.9510    34.5160    33.7060 hc       153 N0S       0.052200
     75 C29         42.7480    34.2480    32.3380 cy       153 N0S      -0.092400
     76 H21         43.1930    33.5470    33.0130 hc       153 N0S       0.051700
     77 H22         42.9330    33.7090    31.4330 hc       153 N0S       0.051700
@<TRIPOS>BOND
     1     1     2 1   
     2     1     3 1   
     3     1     4 1   
     4     1    20 1   
     5     4     5 1   
     6     4     6 1   
     7     4     7 1   
     8     7     8 1   
     9     7     9 1   
    10     7    10 1   
    11    10    11 ar  
    12    10    19 ar  
    13    11    12 1   
    14    11    13 ar  
    15    13    14 1   
    16    13    15 ar  
    17    15    16 1   
    18    15    17 ar  
    19    17    18 1   
    20    17    19 ar  
    21    19    20 1   
    22    20    21 1   
    23    20    25 1   
    24    21    22 1   
    25    21    23 1   
    26    21    24 1   
    27    22    35 1   
    28    25    26 1   
    29    25    27 1   
    30    25    28 1   
    31    28    29 1   
    32    28    32 1   
    33    29    30 1   
    34    29    31 1   
    35    29    70 1   
    36    32    33 ar  
    37    32    35 ar  
    38    33    34 1   
    39    33    40 ar  
    40    35    36 ar  
    41    36    37 1   
    42    36    38 ar  
    43    38    39 1   
    44    38    40 ar  
    45    40    41 1   
    46    41    42 2   
    47    41    43 1   
    48    43    44 1   
    49    43    45 1   
    50    45    46 2   
    51    45    47 2   
    52    45    48 1   
    53    48    49 1   
    54    48    53 1   
    55    48    54 1   
    56    49    50 1   
    57    49    51 1   
    58    49    52 1   
    59    54    55 1   
    60    54    56 1   
    61    54    57 1   
    62    57    58 1   
    63    57    59 1   
    64    57    60 1   
    65    60    61 1   
    66    60    62 2   
    67    62    63 1   
    68    62    64 1   
    69    64    65 1   
    70    64    67 1   
    71    64    68 1   
    72    65    66 1   
    73    68    69 1   
    74    68    70 1   
    75    68    75 1   
    76    70    71 1   
    77    70    72 1   
    78    72    73 1   
    79    72    74 1   
    80    72    75 1   
    81    75    76 1   
    82    75    77 1   
@<TRIPOS>SUBSTRUCTURE
     1 N0S         1 TEMP              0 ****  ****    0 ROOT
