@<TRIPOS>MOLECULE
./divided-files/2hb1/LIGAND.pdb
 17 17 0 0 0
SMALL
GASTEIGER

@<TRIPOS>ATOM
      1 O7         48.8900   51.7260   39.4520 O.co2 298  LIG298298   -0.5440
      2 C6         48.6340   50.5150   39.9830 C.2   298  LIG298298    0.0818
      3 O14        47.9770   50.3850   40.9890 O.co2 298  LIG298298   -0.5440
      4 C4         49.1850   49.4400   39.2780 C.ar  298  LIG298298    0.0772
      5 S3         50.0920   49.6700   37.8520 S.2   298  LIG298298   -0.0906
      6 C1         50.4050   48.0240   37.5760 C.ar  298  LIG298298   -0.0061
      7 C2         49.8040   47.2680   38.6070 C.ar  298  LIG298298    0.0672
      8 Br19       49.9250   45.3920   38.6740 Br    298  LIG298298   -0.0459
      9 C5         49.1140   48.0510   39.5740 C.ar  298  LIG298298    0.1508
     10 O8         48.4460   47.4240   40.6940 O.3   298  LIG298298   -0.4839
     11 C9         49.2120   47.4480   41.9170 C.3   298  LIG298298    0.1287
     12 C10        48.3390   47.1000   43.1250 C.2   298  LIG298298    0.0789
     13 O15        47.1710   46.8800   43.0460 O.co2 298  LIG298298   -0.5463
     14 O13        48.9980   47.0530   44.2940 O.co2 298  LIG298298   -0.5463
     15 H          50.9453   47.6393   36.7853 H     298  LIG298298    0.0706
     16 H          49.6214   48.4272   42.0530 H     298  LIG298298    0.0760
     17 H          49.9920   46.7194   41.8421 H     298  LIG298298    0.0760
@<TRIPOS>UNITY_ATOM_ATTR
1 1
charge -1
13 1
charge -1
@<TRIPOS>BOND
     1     6     5   ar
     2     6     7   ar
     3     5     4   ar
     4     7     8    1
     5     7     9   ar
     6     4     9   ar
     7     4     2    1
     8     1     2   ar
     9     9    10    1
    10     2     3   ar
    11    10    11    1
    12    11    12    1
    13    13    12   ar
    14    12    14   ar
    15     6    15    1
    16    11    16    1
    17    11    17    1
