@<TRIPOS>MOLECULE
0GH
   95    97     1     0     0
SMALL
bcc


@<TRIPOS>ATOM
      1 CBK         56.0260    43.8680    46.9910 c3       388 0GH      -0.098100
      2 H           56.6230    43.8610    46.1030 hc       388 0GH       0.045033
      3 H1          56.6210    44.1950    47.8180 hc       388 0GH       0.045033
      4 H2          55.2000    44.5360    46.8600 hc       388 0GH       0.045033
      5 CBL         55.5030    42.4590    47.2650 c3       388 0GH      -0.083700
      6 CBM         56.6880    41.4940    47.3710 c3       388 0GH      -0.098100
      7 H4          57.3300    41.8050    48.1690 hc       388 0GH       0.045033
      8 H5          57.2350    41.4980    46.4510 hc       388 0GH       0.045033
      9 H6          56.3270    40.5060    47.5680 hc       388 0GH       0.045033
     10 H3          54.8810    42.1250    46.4620 hc       388 0GH       0.054700
     11 CBN         54.6500    42.4700    48.5350 c3       388 0GH       0.079000
     12 H7          55.2580    42.7690    49.3630 h1       388 0GH       0.074700
     13 H8          54.2610    41.4860    48.6940 h1       388 0GH       0.074700
     14 NBO         53.5220    43.4080    48.4000 n        388 0GH      -0.528900
     15 H9          53.6010    44.3580    48.1580 hn       388 0GH       0.337500
     16 CBP         52.2580    42.7080    48.6810 c        388 0GH       0.643100
     17 OBV         52.2550    41.6770    49.3590 o        388 0GH      -0.618100
     18 CBG         51.0460    43.6550    48.6600 c3       388 0GH      -0.002500
     19 CBH         51.0040    44.4500    49.9740 c3       388 0GH       0.144100
     20 CBJ         50.3340    43.6650    51.1030 c3       388 0GH      -0.163100
     21 H12         50.9120    42.7930    51.3240 hc       388 0GH       0.075033
     22 H13         49.3500    43.3730    50.7990 hc       388 0GH       0.075033
     23 H14         50.2690    44.2810    51.9760 hc       388 0GH       0.075033
     24 OBI         52.2920    44.9530    50.3460 oh       388 0GH      -0.582800
     25 H15         52.8920    44.2110    50.5210 ho       388 0GH       0.433000
     26 H11         50.3870    45.3050    49.7940 h1       388 0GH       0.086700
     27 H10         51.1850    44.3110    47.8260 hx       388 0GH       0.123700
     28 NBF         49.7560    42.9930    48.4080 n4       388 0GH      -0.741000
     29 H16         49.6130    42.2600    49.1030 hn       388 0GH       0.475300
     30 H17         49.0100    43.6860    48.4720 hn       388 0GH       0.475300
     31 CAX         49.7420    42.3970    47.0630 c3       388 0GH       0.091800
     32 H18         49.1020    42.9840    46.4370 hx       388 0GH       0.109700
     33 H19         50.7510    42.3870    46.7080 hx       388 0GH       0.109700
     34 CAW         49.2400    40.9490    47.0510 c3       388 0GH       0.084700
     35 CAY         49.1920    40.4140    45.6160 c3       388 0GH      -0.040100
     36 CAZ         48.5730    39.1680    45.5390 ca       388 0GH      -0.121300
     37 CBA         47.6420    38.9040    44.5400 ca       388 0GH      -0.129500
     38 CBB         46.9740    37.6840    44.4950 ca       388 0GH      -0.118000
     39 CBC         47.2270    36.7140    45.4590 ca       388 0GH      -0.106000
     40 CBD         48.1540    36.9780    46.4620 ca       388 0GH      -0.118000
     41 CBE         48.8300    38.1930    46.4980 ca       388 0GH      -0.129500
     42 H27         49.5250    38.3720    47.2400 ha       388 0GH       0.131000
     43 H26         48.3410    36.2670    47.1860 ha       388 0GH       0.148500
     44 H25         46.7330    35.8090    45.4310 ha       388 0GH       0.151000
     45 H24         46.2900    37.4980    43.7450 ha       388 0GH       0.148500
     46 H23         47.4450    39.6200    43.8240 ha       388 0GH       0.131000
     47 H21         48.6480    41.1060    45.0070 hc       388 0GH       0.070700
     48 H22         50.1990    40.3030    45.2730 hc       388 0GH       0.070700
     49 H20         49.9350    40.3870    47.6370 h1       388 0GH       0.086700
     50 NAV         47.9140    40.7940    47.6670 n        388 0GH      -0.563900
     51 H28         47.1050    40.9390    47.1250 hn       388 0GH       0.331500
     52 CAT         47.7960    40.4570    48.9590 c        388 0GH       0.690700
     53 OAU         48.7690    40.3300    49.7000 o        388 0GH      -0.671100
     54 CAP         46.4910    40.2720    49.4100 ca       388 0GH      -0.144600
     55 CAO         46.1480    40.4400    50.7500 ca       388 0GH      -0.096000
     56 CAN         44.9070    40.0280    51.2350 ca       388 0GH       0.169600
     57 NAE         44.6420    40.0040    52.5430 nh       388 0GH      -0.674900
     58 CBT         45.7040    40.6010    53.3670 c3       388 0GH       0.196100
     59 H31         46.6550    40.2260    53.0500 h1       388 0GH       0.054033
     60 H32         45.5450    40.3470    54.3940 h1       388 0GH       0.054033
     61 H33         45.6860    41.6660    53.2550 h1       388 0GH       0.054033
     62 SAB         43.1670    40.5630    53.0070 s6       388 0GH       1.458900
     63 OAC         43.3140    41.5390    54.1740 o        388 0GH      -0.635800
     64 OAD         42.4560    41.2670    51.8480 o        388 0GH      -0.635800
     65 CAA         42.1710    39.1790    53.5260 c3       388 0GH      -0.377300
     66 H34         42.0650    38.4920    52.7130 h1       388 0GH       0.127033
     67 H35         41.2060    39.5280    53.8270 h1       388 0GH       0.127033
     68 H36         42.6460    38.6870    54.3500 h1       388 0GH       0.127033
     69 CAS         44.0420    39.3710    50.3660 ca       388 0GH      -0.077000
     70 H37         43.1420    39.0120    50.7220 ha       388 0GH       0.173000
     71 H30         46.8230    40.8780    51.3950 ha       388 0GH       0.158000
     72 CAQ         45.5910    39.6500    48.5520 ca       388 0GH      -0.094000
     73 H29         45.8330    39.5310    47.5560 ha       388 0GH       0.150000
     74 CAR         44.3680    39.1890    49.0250 ca       388 0GH      -0.111600
     75 CAL         43.4190    38.6890    48.1420 c        388 0GH       0.663700
     76 OAM         42.7030    37.7420    48.4650 o        388 0GH      -0.577100
     77 NBQ         43.4530    39.1770    46.8940 n        388 0GH      -0.547900
     78 H38         44.1250    39.8530    46.6530 hn       388 0GH       0.303500
     79 CBR         42.4950    38.7110    45.8800 c3       388 0GH       0.134000
     80 CBS         43.2450    38.1370    44.6760 c3       388 0GH      -0.098100
     81 H40         43.8440    38.9040    44.2300 hc       388 0GH       0.044367
     82 H41         42.5410    37.7720    43.9580 hc       388 0GH       0.044367
     83 H42         43.8760    37.3350    44.9980 hc       388 0GH       0.044367
     84 H39         41.8970    37.9410    46.3230 h1       388 0GH       0.097700
     85 CAI         41.6280    39.7250    45.4780 ca       388 0GH      -0.121300
     86 CAH         40.2590    39.5640    45.6560 ca       388 0GH      -0.118500
     87 H43         39.8880    38.6560    45.9760 ha       388 0GH       0.130500
     88 CAG         39.3830    40.6190    45.4060 ca       388 0GH      -0.125000
     89 H44         38.3670    40.4890    45.5400 ha       388 0GH       0.138000
     90 CAF         39.8760    41.8450    44.9760 ca       388 0GH      -0.116000
     91 H45         39.2310    42.6300    44.7960 ha       388 0GH       0.140000
     92 CAK         41.2460    42.0090    44.7890 ca       388 0GH      -0.125000
     93 H46         41.6180    42.9170    44.4720 ha       388 0GH       0.138000
     94 CAJ         42.1160    40.9500    45.0300 ca       388 0GH      -0.118500
     95 H47         43.1290    41.0730    44.8770 ha       388 0GH       0.130500
@<TRIPOS>BOND
     1     1     2 1   
     2     1     3 1   
     3     1     4 1   
     4     1     5 1   
     5     5     6 1   
     6     5    10 1   
     7     5    11 1   
     8     6     7 1   
     9     6     8 1   
    10     6     9 1   
    11    11    12 1   
    12    11    13 1   
    13    11    14 1   
    14    14    15 1   
    15    14    16 1   
    16    16    17 2   
    17    16    18 1   
    18    18    19 1   
    19    18    27 1   
    20    18    28 1   
    21    19    20 1   
    22    19    24 1   
    23    19    26 1   
    24    20    21 1   
    25    20    22 1   
    26    20    23 1   
    27    24    25 1   
    28    28    29 1   
    29    28    30 1   
    30    28    31 1   
    31    31    32 1   
    32    31    33 1   
    33    31    34 1   
    34    34    35 1   
    35    34    49 1   
    36    34    50 1   
    37    35    36 1   
    38    35    47 1   
    39    35    48 1   
    40    36    37 ar  
    41    36    41 ar  
    42    37    38 ar  
    43    37    46 1   
    44    38    39 ar  
    45    38    45 1   
    46    39    40 ar  
    47    39    44 1   
    48    40    41 ar  
    49    40    43 1   
    50    41    42 1   
    51    50    51 1   
    52    50    52 1   
    53    52    53 2   
    54    52    54 1   
    55    54    55 ar  
    56    54    72 ar  
    57    55    56 ar  
    58    55    71 1   
    59    56    57 1   
    60    56    69 ar  
    61    57    58 1   
    62    57    62 1   
    63    58    59 1   
    64    58    60 1   
    65    58    61 1   
    66    62    63 2   
    67    62    64 2   
    68    62    65 1   
    69    65    66 1   
    70    65    67 1   
    71    65    68 1   
    72    69    70 1   
    73    69    74 ar  
    74    72    73 1   
    75    72    74 ar  
    76    74    75 1   
    77    75    76 2   
    78    75    77 1   
    79    77    78 1   
    80    77    79 1   
    81    79    80 1   
    82    79    84 1   
    83    79    85 1   
    84    80    81 1   
    85    80    82 1   
    86    80    83 1   
    87    85    86 ar  
    88    85    94 ar  
    89    86    87 1   
    90    86    88 ar  
    91    88    89 1   
    92    88    90 ar  
    93    90    91 1   
    94    90    92 ar  
    95    92    93 1   
    96    92    94 ar  
    97    94    95 1   
@<TRIPOS>SUBSTRUCTURE
     1 0GH         1 TEMP              0 ****  ****    0 ROOT
