@<TRIPOS>MOLECULE
./divided-files/4gid/LIGAND.pdb
 95 97 0 0 0
SMALL
GASTEIGER

@<TRIPOS>ATOM
      1 C          56.0260   43.8680   46.9910 C.3     1  UNL1       -0.0612
      2 C          55.5030   42.4590   47.2650 C.3     1  UNL1       -0.0311
      3 C          56.6880   41.4940   47.3710 C.3     1  UNL1       -0.0612
      4 C          54.6500   42.4700   48.5350 C.3     1  UNL1        0.0141
      5 N          53.5220   43.4080   48.4000 N.am    1  UNL1       -0.3104
      6 C          52.2580   42.7080   48.6810 C.2     1  UNL1        0.2638
      7 O          52.2550   41.6770   49.3590 O.2     1  UNL1       -0.2695
      8 C          51.0460   43.6550   48.6600 C.3     1  UNL1        0.0810
      9 C          51.0040   44.4500   49.9740 C.3     1  UNL1        0.1034
     10 C          50.3340   43.6650   51.1030 C.3     1  UNL1       -0.0331
     11 O          52.2920   44.9530   50.3460 O.3     1  UNL1       -0.3860
     12 N          49.7560   42.9930   48.4080 N.4     1  UNL1        0.2389
     13 C          49.7420   42.3970   47.0630 C.3     1  UNL1       -0.0137
     14 C          49.2400   40.9490   47.0510 C.3     1  UNL1        0.0671
     15 C          49.1920   40.4140   45.6160 C.3     1  UNL1       -0.0042
     16 C          48.5730   39.1680   45.5390 C.ar    1  UNL1       -0.0454
     17 C          47.6420   38.9040   44.5400 C.ar    1  UNL1       -0.0585
     18 C          46.9740   37.6840   44.4950 C.ar    1  UNL1       -0.0615
     19 C          47.2270   36.7140   45.4590 C.ar    1  UNL1       -0.0617
     20 C          48.1540   36.9780   46.4620 C.ar    1  UNL1       -0.0615
     21 C          48.8300   38.1930   46.4980 C.ar    1  UNL1       -0.0585
     22 N          47.9140   40.7940   47.6670 N.am    1  UNL1       -0.3031
     23 C          47.7960   40.4570   48.9590 C.2     1  UNL1        0.2445
     24 O          48.7690   40.3300   49.7000 O.2     1  UNL1       -0.2702
     25 C          46.4910   40.2720   49.4100 C.ar    1  UNL1        0.0392
     26 C          46.1480   40.4400   50.7500 C.ar    1  UNL1       -0.0269
     27 C          44.9070   40.0280   51.2350 C.ar    1  UNL1        0.0520
     28 N          44.6420   40.0040   52.5430 N.pl3   1  UNL1       -0.2106
     29 C          45.7040   40.6010   53.3670 C.3     1  UNL1        0.0232
     30 S          43.1670   40.5630   53.0070 S.O2    1  UNL1        0.0424
     31 O          43.3140   41.5390   54.1740 O.2     1  UNL1       -0.1553
     32 O          42.4560   41.2670   51.8480 O.2     1  UNL1       -0.1553
     33 C          42.1710   39.1790   53.5260 C.3     1  UNL1        0.0738
     34 C          44.0420   39.3710   50.3660 C.ar    1  UNL1       -0.0269
     35 C          45.5910   39.6500   48.5520 C.ar    1  UNL1       -0.0374
     36 C          44.3680   39.1890   49.0250 C.ar    1  UNL1        0.0392
     37 C          43.4190   38.6890   48.1420 C.2     1  UNL1        0.2446
     38 O          42.7030   37.7420   48.4650 O.2     1  UNL1       -0.2702
     39 N          43.4530   39.1770   46.8940 N.am    1  UNL1       -0.3048
     40 C          42.4950   38.7110   45.8800 C.3     1  UNL1        0.0458
     41 C          43.2450   38.1370   44.6760 C.3     1  UNL1       -0.0424
     42 C          41.6280   39.7250   45.4780 C.ar    1  UNL1       -0.0275
     43 C          40.2590   39.5640   45.6560 C.ar    1  UNL1       -0.0568
     44 C          39.3830   40.6190   45.4060 C.ar    1  UNL1       -0.0614
     45 C          39.8760   41.8450   44.9760 C.ar    1  UNL1       -0.0617
     46 C          41.2460   42.0090   44.7890 C.ar    1  UNL1       -0.0614
     47 C          42.1160   40.9500   45.0300 C.ar    1  UNL1       -0.0568
     48 H          56.6226   43.8605   46.1028 H       1  UNL1        0.0233
     49 H          56.6214   44.1945   47.8179 H       1  UNL1        0.0233
     50 H          55.2003   44.5358   46.8604 H       1  UNL1        0.0233
     51 H          54.8801   42.1248   46.4618 H       1  UNL1        0.0311
     52 H          57.3303   41.8041   48.1686 H       1  UNL1        0.0233
     53 H          57.2344   41.4977   46.4510 H       1  UNL1        0.0233
     54 H          56.3270   40.5061   47.5674 H       1  UNL1        0.0233
     55 H          55.2578   42.7693   49.3632 H       1  UNL1        0.0464
     56 H          54.2606   41.4863   48.6949 H       1  UNL1        0.0464
     57 H          53.6016   44.3591   48.1584 H       1  UNL1        0.1489
     58 H          51.1847   44.3104   47.8256 H       1  UNL1        0.0975
     59 H          50.3879   45.3062   49.7943 H       1  UNL1        0.0652
     60 H          50.9134   42.7929   51.3237 H       1  UNL1        0.0257
     61 H          49.3506   43.3725   50.7992 H       1  UNL1        0.0257
     62 H          50.2694   44.2805   51.9758 H       1  UNL1        0.0257
     63 H          52.8911   44.2103   50.5206 H       1  UNL1        0.2100
     64 H          49.6128   42.2598   49.1024 H       1  UNL1        0.2023
     65 H          49.0097   43.6854   48.4718 H       1  UNL1        0.2023
     66 H          49.1027   42.9840   46.4373 H       1  UNL1        0.0832
     67 H          50.7515   42.3871   46.7084 H       1  UNL1        0.0832
     68 H          49.9360   40.3857   47.6368 H       1  UNL1        0.0554
     69 H          48.6486   41.1068   45.0080 H       1  UNL1        0.0333
     70 H          50.1995   40.3019   45.2735 H       1  UNL1        0.0333
     71 H          47.4444   39.6207   43.8242 H       1  UNL1        0.0620
     72 H          46.2897   37.4987   43.7450 H       1  UNL1        0.0618
     73 H          46.7326   35.8086   45.4305 H       1  UNL1        0.0618
     74 H          48.3417   36.2664   47.1855 H       1  UNL1        0.0618
     75 H          49.5253   38.3722   47.2393 H       1  UNL1        0.0620
     76 H          47.1049   40.9391   47.1252 H       1  UNL1        0.1495
     77 H          46.8245   40.8772   51.3952 H       1  UNL1        0.0644
     78 H          46.6546   40.2256   53.0504 H       1  UNL1        0.0446
     79 H          45.5441   40.3467   54.3940 H       1  UNL1        0.0446
     80 H          45.6858   41.6651   53.2561 H       1  UNL1        0.0446
     81 H          42.0643   38.4916   52.7130 H       1  UNL1        0.0482
     82 H          41.2053   39.5276   53.8274 H       1  UNL1        0.0482
     83 H          42.6455   38.6869   54.3492 H       1  UNL1        0.0482
     84 H          43.1423   39.0120   50.7219 H       1  UNL1        0.0644
     85 H          45.8329   39.5296   47.5560 H       1  UNL1        0.0633
     86 H          44.1260   39.8542   46.6537 H       1  UNL1        0.1496
     87 H          41.8982   37.9416   46.3235 H       1  UNL1        0.0545
     88 H          43.8431   38.9038   44.2297 H       1  UNL1        0.0251
     89 H          42.5407   37.7710   43.9584 H       1  UNL1        0.0251
     90 H          43.8756   37.3348   44.9980 H       1  UNL1        0.0251
     91 H          39.8880   38.6557   45.9760 H       1  UNL1        0.0621
     92 H          38.3680   40.4896   45.5403 H       1  UNL1        0.0618
     93 H          39.2302   42.6297   44.7962 H       1  UNL1        0.0618
     94 H          41.6170   42.9180   44.4710 H       1  UNL1        0.0618
     95 H          43.1290   41.0731   44.8758 H       1  UNL1        0.0621
@<TRIPOS>UNITY_ATOM_ATTR
12 1
charge 1
@<TRIPOS>BOND
     1    18    17   ar
     2    18    19   ar
     3    17    16   ar
     4    41    40    1
     5    46    45   ar
     6    46    47   ar
     7    45    44   ar
     8    47    42   ar
     9    44    43   ar
    10    19    20   ar
    11    42    43   ar
    12    42    40    1
    13    16    15    1
    14    16    21   ar
    15    15    14    1
    16    40    39    1
    17    20    21   ar
    18    39    37   am
    19     1     2    1
    20    14    13    1
    21    14    22    1
    22    13    12    1
    23     2     3    1
    24     2     4    1
    25    22    23   am
    26    37    38    2
    27    37    36    1
    28     5     4    1
    29     5     6   am
    30    12     8    1
    31    35    36   ar
    32    35    25   ar
    33     8     6    1
    34     8     9    1
    35     6     7    2
    36    23    25    1
    37    23    24    2
    38    36    34   ar
    39    25    26   ar
    40     9    11    1
    41     9    10    1
    42    34    27   ar
    43    26    27   ar
    44    27    28    1
    45    32    30    2
    46    28    30    1
    47    28    29    1
    48    30    33    1
    49    30    31    2
    50     1    48    1
    51     1    49    1
    52     1    50    1
    53     2    51    1
    54     3    52    1
    55     3    53    1
    56     3    54    1
    57     4    55    1
    58     4    56    1
    59     5    57    1
    60     8    58    1
    61     9    59    1
    62    10    60    1
    63    10    61    1
    64    10    62    1
    65    11    63    1
    66    12    64    1
    67    12    65    1
    68    13    66    1
    69    13    67    1
    70    14    68    1
    71    15    69    1
    72    15    70    1
    73    17    71    1
    74    18    72    1
    75    19    73    1
    76    20    74    1
    77    21    75    1
    78    22    76    1
    79    26    77    1
    80    29    78    1
    81    29    79    1
    82    29    80    1
    83    33    81    1
    84    33    82    1
    85    33    83    1
    86    34    84    1
    87    35    85    1
    88    39    86    1
    89    40    87    1
    90    41    88    1
    91    41    89    1
    92    41    90    1
    93    43    91    1
    94    44    92    1
    95    45    93    1
    96    46    94    1
    97    47    95    1
