@<TRIPOS>MOLECULE
./divided-files/4gid/LIGAND.pdb
 47 49 0 0 0
SMALL
GASTEIGER

@<TRIPOS>ATOM
      1  CBK       56.0260   43.8680   46.9910 C.3   388  0GH388      0.0018
      2  CBL       55.5030   42.4590   47.2650 C.3   388  0GH388      0.0217
      3  CBM       56.6880   41.4940   47.3710 C.3   388  0GH388      0.0018
      4  CBN       54.6500   42.4700   48.5350 C.3   388  0GH388      0.1151
      5  NBO       53.5220   43.4080   48.4000 N.am  388  0GH388     -0.2042
      6  CBP       52.2580   42.7080   48.6810 C.2   388  0GH388      0.2598
      7  OBV       52.2550   41.6770   49.3590 O.2   388  0GH388     -0.2717
      8  CBG       51.0460   43.6550   48.6600 C.3   388  0GH388      0.1809
      9  CBH       51.0040   44.4500   49.9740 C.3   388  0GH388      0.1768
     10  CBJ       50.3340   43.6650   51.1030 C.3   388  0GH388      0.0375
     11  OBI       52.2920   44.9530   50.3460 O.3   388  0GH388     -0.2211
     12  NBF       49.7560   42.9930   48.4080 N.4   388  0GH388     -0.2061
     13  CAX       49.7420   42.3970   47.0630 C.3   388  0GH388      0.1112
     14  CAW       49.2400   40.9490   47.0510 C.3   388  0GH388      0.1173
     15  CAY       49.1920   40.4140   45.6160 C.3   388  0GH388      0.0495
     16  CAZ       48.5730   39.1680   45.5390 C.ar  388  0GH388     -0.0204
     17  CBA       47.6420   38.9040   44.5400 C.ar  388  0GH388     -0.0042
     18  CBB       46.9740   37.6840   44.4950 C.ar  388  0GH388     -0.0003
     19  CBC       47.2270   36.7140   45.4590 C.ar  388  0GH388     -0.0000
     20  CBD       48.1540   36.9780   46.4620 C.ar  388  0GH388     -0.0003
     21  CBE       48.8300   38.1930   46.4980 C.ar  388  0GH388     -0.0042
     22  NAV       47.9140   40.7940   47.6670 N.am  388  0GH388     -0.2016
     23  CAT       47.7960   40.4570   48.9590 C.2   388  0GH388      0.2648
     24  OAU       48.7690   40.3300   49.7000 O.2   388  0GH388     -0.2684
     25  CAP       46.4910   40.2720   49.4100 C.ar  388  0GH388      0.0565
     26  CAO       46.1480   40.4400   50.7500 C.ar  388  0GH388      0.0207
     27  CAN       44.9070   40.0280   51.2350 C.ar  388  0GH388      0.0688
     28  NAE       44.6420   40.0040   52.5430 N.pl3 388  0GH388     -0.1925
     29  CBT       45.7040   40.6010   53.3670 C.3   388  0GH388      0.1388
     30  SAB       43.1670   40.5630   53.0070 S.O2  388  0GH388      0.0588
     31  OAC       43.3140   41.5390   54.1740 O.2   388  0GH388     -0.1542
     32  OAD       42.4560   41.2670   51.8480 O.2   388  0GH388     -0.1542
     33  CAA       42.1710   39.1790   53.5260 C.3   388  0GH388      0.1999
     34  CAS       44.0420   39.3710   50.3660 C.ar  388  0GH388      0.0207
     35  CAQ       45.5910   39.6500   48.5520 C.ar  388  0GH388      0.0092
     36  CAR       44.3680   39.1890   49.0250 C.ar  388  0GH388      0.0565
     37  CAL       43.4190   38.6890   48.1420 C.2   388  0GH388      0.2651
     38  OAM       42.7030   37.7420   48.4650 O.2   388  0GH388     -0.2684
     39  NBQ       43.4530   39.1770   46.8940 N.am  388  0GH388     -0.1989
     40  CBR       42.4950   38.7110   45.8800 C.3   388  0GH388      0.1178
     41  CBS       43.2450   38.1370   44.6760 C.3   388  0GH388      0.0283
     42  CAI       41.6280   39.7250   45.4780 C.ar  388  0GH388     -0.0026
     43  CAH       40.2590   39.5640   45.6560 C.ar  388  0GH388     -0.0026
     44  CAG       39.3830   40.6190   45.4060 C.ar  388  0GH388     -0.0003
     45  CAF       39.8760   41.8450   44.9760 C.ar  388  0GH388     -0.0000
     46  CAK       41.2460   42.0090   44.7890 C.ar  388  0GH388     -0.0003
     47  CAJ       42.1160   40.9500   45.0300 C.ar  388  0GH388     -0.0026
@<TRIPOS>BOND
     1    18    17   ar
     2    18    19   ar
     3    17    16   ar
     4    41    40    1
     5    46    45   ar
     6    46    47   ar
     7    45    44   ar
     8    47    42   ar
     9    44    43   ar
    10    19    20   ar
    11    42    43   ar
    12    42    40    1
    13    16    15    1
    14    16    21   ar
    15    15    14    1
    16    40    39    1
    17    20    21   ar
    18    39    37   am
    19     1     2    1
    20    14    13    1
    21    14    22    1
    22    13    12    1
    23     2     3    1
    24     2     4    1
    25    22    23   am
    26    37    38    2
    27    37    36    1
    28     5     4    1
    29     5     6   am
    30    12     8    1
    31    35    36   ar
    32    35    25   ar
    33     8     6    1
    34     8     9    1
    35     6     7    2
    36    23    25    1
    37    23    24    2
    38    36    34   ar
    39    25    26   ar
    40     9    11    1
    41     9    10    1
    42    34    27   ar
    43    26    27   ar
    44    27    28    1
    45    32    30    2
    46    28    30    1
    47    28    29    1
    48    30    33    1
    49    30    31    2
