@<TRIPOS>MOLECULE
./divided-files/5yas/LIGAND.pdb
 13 12 0 0 0
SMALL
GASTEIGER

@<TRIPOS>ATOM
      1 F1         30.2530   36.3330   49.6720 F     257  FAC257257   -0.1652
      2 C1         31.4310   37.0070   49.9230 C.3   257  FAC257257    0.4533
      3 F2         31.4380   37.5150   51.1980 F     257  FAC257257   -0.1652
      4 F3         32.4640   36.1420   49.7600 F     257  FAC257257   -0.1652
      5 C          31.6260   38.1570   48.9560 C.3   257  FAC257257    0.3609
      6 O1         32.7140   38.9690   49.3950 O.3   257  FAC257257   -0.3515
      7 O2         31.9440   37.6840   47.6570 O.3   257  FAC257257   -0.3515
      8 C2         30.4150   39.0310   48.7900 C.3   257  FAC257257    0.4533
      9 F5         30.8610   40.0040   48.0070 F     257  FAC257257   -0.1652
     10 F6         30.0170   39.5800   49.9750 F     257  FAC257257   -0.1652
     11 F4         29.3640   38.3710   48.1740 F     257  FAC257257   -0.1652
     12 H          32.6855   39.3738   50.2396 H     257  FAC257257    0.2133
     13 H          31.3429   37.1289   47.2004 H     257  FAC257257    0.2133
@<TRIPOS>BOND
     1     7     5    1
     2     9     8    1
     3    11     8    1
     4     8     5    1
     5     8    10    1
     6     5     6    1
     7     5     2    1
     8     1     2    1
     9     4     2    1
    10     2     3    1
    11     6    12    1
    12     7    13    1
