@<TRIPOS>MOLECULE
./divided-files/6oqc/LIGAND.pdb
 77 82 0 0 0
SMALL
GASTEIGER

@<TRIPOS>ATOM
      1 C18        39.1680   38.1270   36.2220 C.3   153  N0S153153   -0.0385
      2 C12        39.4350   36.9420   37.1670 C.3   153  N0S153153   -0.0481
      3 C11        38.1450   36.5770   37.8560 C.3   153  N0S153153   -0.0273
      4 C10        37.0190   36.3750   36.8460 C.ar  153  N0S153153   -0.0421
      5 C16        35.9250   35.6130   37.2600 C.ar  153  N0S153153   -0.0399
      6 C15        34.8770   35.3660   36.3870 C.ar  153  N0S153153    0.0413
      7 Cl1        33.5350   34.4220   36.9040 Cl    153  N0S153153   -0.0835
      8 C14        34.8770   35.8760   35.0920 C.ar  153  N0S153153   -0.0431
      9 C13        35.9730   36.6330   34.6810 C.ar  153  N0S153153   -0.0562
     10 C19        37.0340   36.8780   35.5480 C.ar  153  N0S153153   -0.0332
     11 C8         38.2420   37.7340   35.0580 C.3   153  N0S153153    0.0456
     12 C9         37.7190   39.0520   34.4100 C.3   153  N0S153153    0.1007
     13 O1         37.3190   38.8740   33.0130 O.3   153  N0S153153   -0.4892
     14 C7         39.0580   36.9640   34.0060 C.3   153  N0S153153    0.0251
     15 N1         40.0790   37.8660   33.4020 N.pl3 153  N0S153153   -0.3258
     16 C20        41.4260   37.2250   33.4010 C.3   153  N0S153153    0.0155
     17 C1         39.6640   38.5620   32.3170 C.ar  153  N0S153153    0.0727
     18 C6         40.5650   38.8940   31.3120 C.ar  153  N0S153153   -0.0249
     19 C2         38.3360   39.0140   32.1440 C.ar  153  N0S153153    0.1415
     20 C3         37.9260   39.7510   31.0400 C.ar  153  N0S153153   -0.0174
     21 C4         38.8360   40.0330   30.0370 C.ar  153  N0S153153   -0.0460
     22 C5         40.1490   39.5980   30.1970 C.ar  153  N0S153153    0.0402
     23 C17        41.1520   39.8690   29.1150 C.2   153  N0S153153    0.2628
     24 O2         42.2940   40.2250   29.3800 O.2   153  N0S153153   -0.2686
     25 N2         40.6780   39.6170   27.9000 N.am  153  N0S153153   -0.1857
     26 S1         41.5880   39.8380   26.5880 S.O2  153  N0S153153    0.0480
     27 O3         40.7690   39.4370   25.3910 O.2   153  N0S153153   -0.1548
     28 O4         42.0140   41.2770   26.5100 O.2   153  N0S153153   -0.1548
     29 C26        43.0220   38.7370   26.7680 C.3   153  N0S153153    0.0934
     30 C31        43.9550   38.7670   25.5640 C.3   153  N0S153153   -0.0411
     31 C30        42.4910   37.3190   27.0670 C.3   153  N0S153153   -0.0258
     32 C25        43.5480   36.4440   27.7270 C.3   153  N0S153153   -0.0329
     33 C24        43.8290   36.8380   29.0370 C.2   153  N0S153153   -0.0855
     34 C23        43.8000   35.8820   30.0410 C.2   153  N0S153153   -0.0596
     35 C27        44.1720   36.2320   31.4730 C.3   153  N0S153153    0.0765
     36 O5         45.4480   35.6440   31.7450 O.3   153  N0S153153   -0.3875
     37 C22        43.1950   35.7110   32.5310 C.3   153  N0S153153   -0.0071
     38 C21        41.7540   36.1690   32.3330 C.3   153  N0S153153   -0.0198
     39 C28        41.3480   34.7250   32.7340 C.3   153  N0S153153   -0.0481
     40 C29        42.7480   34.2480   32.3380 C.3   153  N0S153153   -0.0470
     41 H          38.7082   38.9167   36.7786 H     153  N0S153153    0.0275
     42 H          40.1044   38.4406   35.8100 H     153  N0S153153    0.0275
     43 H          40.1671   37.2201   37.8961 H     153  N0S153153    0.0269
     44 H          39.8016   36.1053   36.6099 H     153  N0S153153    0.0269
     45 H          38.2874   35.6704   38.4062 H     153  N0S153153    0.0313
     46 H          37.8727   37.3772   38.5121 H     153  N0S153153    0.0313
     47 H          35.8964   35.2325   38.2189 H     153  N0S153153    0.0635
     48 H          34.0864   35.6984   34.4529 H     153  N0S153153    0.0632
     49 H          35.9980   37.0161   33.7231 H     153  N0S153153    0.0621
     50 H          36.8726   39.3953   34.9674 H     153  N0S153153    0.0706
     51 H          38.5195   39.7618   34.4293 H     153  N0S153153    0.0706
     52 H          39.5476   36.1350   34.4728 H     153  N0S153153    0.0473
     53 H          38.4015   36.6089   33.2393 H     153  N0S153153    0.0473
     54 H          42.1455   38.0099   33.2957 H     153  N0S153153    0.0466
     55 H          41.4459   36.6738   34.3179 H     153  N0S153153    0.0466
     56 H          41.5540   38.6123   31.3989 H     153  N0S153153    0.0645
     57 H          36.9521   40.0848   30.9689 H     153  N0S153153    0.0655
     58 H          38.5493   40.5521   29.1924 H     153  N0S153153    0.0626
     59 H          39.7550   39.2896   27.7991 H     153  N0S153153    0.1765
     60 H          43.6297   39.0789   27.5796 H     153  N0S153153    0.0552
     61 H          43.4261   38.4365   24.6946 H     153  N0S153153    0.0249
     62 H          44.7881   38.1197   25.7422 H     153  N0S153153    0.0249
     63 H          44.3061   39.7659   25.4096 H     153  N0S153153    0.0249
     64 H          42.1884   36.8621   26.1480 H     153  N0S153153    0.0287
     65 H          41.6664   37.4095   27.7429 H     153  N0S153153    0.0287
     66 H          44.4482   36.5007   27.1514 H     153  N0S153153    0.0308
     67 H          43.1656   35.4453   27.7636 H     153  N0S153153    0.0308
     68 H          44.0539   37.8216   29.2536 H     153  N0S153153    0.0570
     69 H          43.5208   34.9152   29.8120 H     153  N0S153153    0.0594
     70 H          44.1622   37.2999   31.5393 H     153  N0S153153    0.0640
     71 H          45.3827   34.6793   31.6671 H     153  N0S153153    0.2102
     72 H          43.7455   35.9953   33.4033 H     153  N0S153153    0.0332
     73 H          41.3669   36.6164   31.4414 H     153  N0S153153    0.0319
     74 H          40.5580   34.3097   32.1438 H     153  N0S153153    0.0269
     75 H          40.9504   34.5156   33.7051 H     153  N0S153153    0.0269
     76 H          43.1933   33.5482   33.0139 H     153  N0S153153    0.0269
     77 H          42.9336   33.7078   31.4332 H     153  N0S153153    0.0269
@<TRIPOS>BOND
     1    27    26    2
     2    30    29    1
     3    28    26    2
     4    26    29    1
     5    26    25    1
     6    29    31    1
     7    31    32    1
     8    32    33    1
     9    25    23   am
    10    33    34    2
    11    23    24    2
    12    23    22    1
    13    21    22   ar
    14    21    20   ar
    15    34    35    1
    16    22    18   ar
    17    20    19   ar
    18    18    17   ar
    19    35    36    1
    20    35    37    1
    21    19    17   ar
    22    19    13    1
    23    17    15    1
    24    38    37    1
    25    38    39    1
    26    38    16    1
    27    40    37    1
    28    40    39    1
    29    13    12    1
    30    16    15    1
    31    15    14    1
    32    14    11    1
    33    12    11    1
    34     9     8   ar
    35     9    10   ar
    36    11    10    1
    37    11     1    1
    38     8     6   ar
    39    10     4   ar
    40     1     2    1
    41     6     7    1
    42     6     5   ar
    43     4     5   ar
    44     4     3    1
    45     2     3    1
    46     1    41    1
    47     1    42    1
    48     2    43    1
    49     2    44    1
    50     3    45    1
    51     3    46    1
    52     5    47    1
    53     8    48    1
    54     9    49    1
    55    12    50    1
    56    12    51    1
    57    14    52    1
    58    14    53    1
    59    16    54    1
    60    16    55    1
    61    18    56    1
    62    20    57    1
    63    21    58    1
    64    25    59    1
    65    29    60    1
    66    30    61    1
    67    30    62    1
    68    30    63    1
    69    31    64    1
    70    31    65    1
    71    32    66    1
    72    32    67    1
    73    33    68    1
    74    34    69    1
    75    35    70    1
    76    36    71    1
    77    37    72    1
    78    38    73    1
    79    39    74    1
    80    39    75    1
    81    40    76    1
    82    40    77    1
