@<TRIPOS>MOLECULE
./divided-files/6oqc/LIGAND.pdb
 40 45 0 0 0
SMALL
GASTEIGER

@<TRIPOS>ATOM
      1  C18       39.1680   38.1270   36.2220 C.3   153  N0S153      0.0097
      2  C12       39.4350   36.9420   37.1670 C.3   153  N0S153      0.0052
      3  C11       38.1450   36.5770   37.8560 C.3   153  N0S153      0.0261
      4  C10       37.0190   36.3750   36.8460 C.ar  153  N0S153     -0.0251
      5  C16       35.9250   35.6130   37.2600 C.ar  153  N0S153      0.0068
      6  C15       34.8770   35.3660   36.3870 C.ar  153  N0S153      0.0573
      7 Cl1        33.5350   34.4220   36.9040 Cl    153  N0S153     -0.0823
      8  C14       34.8770   35.8760   35.0920 C.ar  153  N0S153      0.0111
      9  C13       35.9730   36.6330   34.6810 C.ar  153  N0S153     -0.0036
     10  C19       37.0340   36.8780   35.5480 C.ar  153  N0S153     -0.0216
     11  C8        38.2420   37.7340   35.0580 C.3   153  N0S153      0.0771
     12  C9        37.7190   39.0520   34.4100 C.3   153  N0S153      0.2109
     13  O1        37.3190   38.8740   33.0130 O.3   153  N0S153     -0.4738
     14  C7        39.0580   36.9640   34.0060 C.3   153  N0S153      0.0984
     15  N1        40.0790   37.8660   33.4020 N.pl3 153  N0S153     -0.3047
     16  C20       41.4260   37.2250   33.4010 C.3   153  N0S153      0.0909
     17  C1        39.6640   38.5620   32.3170 C.ar  153  N0S153      0.0824
     18  C6        40.5650   38.8940   31.3120 C.ar  153  N0S153      0.0222
     19  C2        38.3360   39.0140   32.1440 C.ar  153  N0S153      0.1517
     20  C3        37.9260   39.7510   31.0400 C.ar  153  N0S153      0.0383
     21  C4        38.8360   40.0330   30.0370 C.ar  153  N0S153      0.0078
     22  C5        40.1490   39.5980   30.1970 C.ar  153  N0S153      0.0581
     23  C17       41.1520   39.8690   29.1150 C.2   153  N0S153      0.2854
     24  O2        42.2940   40.2250   29.3800 O.2   153  N0S153     -0.2667
     25  N2        40.6780   39.6170   27.9000 N.am  153  N0S153     -0.0591
     26  S1        41.5880   39.8380   26.5880 S.O2  153  N0S153      0.0742
     27  O3        40.7690   39.4370   25.3910 O.2   153  N0S153     -0.1528
     28  O4        42.0140   41.2770   26.5100 O.2   153  N0S153     -0.1528
     29  C26       43.0220   38.7370   26.7680 C.3   153  N0S153      0.1512
     30  C31       43.9550   38.7670   25.5640 C.3   153  N0S153      0.0274
     31  C30       42.4910   37.3190   27.0670 C.3   153  N0S153      0.0302
     32  C25       43.5480   36.4440   27.7270 C.3   153  N0S153      0.0276
     33  C24       43.8290   36.8380   29.0370 C.2   153  N0S153     -0.0282
     34  C23       43.8000   35.8820   30.0410 C.2   153  N0S153      0.0015
     35  C27       44.1720   36.2320   31.4730 C.3   153  N0S153      0.1737
     36  O5        45.4480   35.6440   31.7450 O.3   153  N0S153     -0.2183
     37  C22       43.1950   35.7110   32.5310 C.3   153  N0S153      0.0363
     38  C21       41.7540   36.1690   32.3330 C.3   153  N0S153      0.0225
     39  C28       41.3480   34.7250   32.7340 C.3   153  N0S153      0.0019
     40  C29       42.7480   34.2480   32.3380 C.3   153  N0S153      0.0030
@<TRIPOS>BOND
     1    27    26    2
     2    30    29    1
     3    28    26    2
     4    26    29    1
     5    26    25    1
     6    29    31    1
     7    31    32    1
     8    32    33    1
     9    25    23   am
    10    33    34    2
    11    23    24    2
    12    23    22    1
    13    21    22   ar
    14    21    20   ar
    15    34    35    1
    16    22    18   ar
    17    20    19   ar
    18    18    17   ar
    19    35    36    1
    20    35    37    1
    21    19    17   ar
    22    19    13    1
    23    17    15    1
    24    38    37    1
    25    38    39    1
    26    38    16    1
    27    40    37    1
    28    40    39    1
    29    13    12    1
    30    16    15    1
    31    15    14    1
    32    14    11    1
    33    12    11    1
    34     9     8   ar
    35     9    10   ar
    36    11    10    1
    37    11     1    1
    38     8     6   ar
    39    10     4   ar
    40     1     2    1
    41     6     7    1
    42     6     5   ar
    43     4     5   ar
    44     4     3    1
    45     2     3    1
