@<TRIPOS>MOLECULE
./divided-files/3nq9/LIGAND.pdb
 25 24 0 0 0
SMALL
GASTEIGER

@<TRIPOS>ATOM
      1 C8         32.4110   38.8080   38.7930 C.3   163  OCA163163   -0.0653
      2 C7         31.6170   37.9750   39.7730 C.3   163  OCA163163   -0.0559
      3 C6         32.5060   37.5890   40.9500 C.3   163  OCA163163   -0.0533
      4 C5         32.4450   36.0960   41.2190 C.3   163  OCA163163   -0.0531
      5 C4         32.8700   35.7590   42.6440 C.3   163  OCA163163   -0.0527
      6 C3         32.1120   36.6140   43.6490 C.3   163  OCA163163   -0.0480
      7 C2         32.0790   35.9500   45.0260 C.3   163  OCA163163   -0.0132
      8 C1         30.7370   35.3050   45.2710 C.2   163  OCA163163    0.0417
      9 O2         30.7030   34.2720   45.9700 O.co2 163  OCA163163   -0.5498
     10 O1         29.7090   35.8170   44.7660 O.co2 163  OCA163163   -0.5498
     11 H          31.7868   39.0787   37.9672 H     163  OCA163163    0.0230
     12 H          33.2463   38.2413   38.4380 H     163  OCA163163    0.0230
     13 H          32.7620   39.6937   39.2801 H     163  OCA163163    0.0230
     14 H          31.2660   37.0894   39.2858 H     163  OCA163163    0.0263
     15 H          30.7819   38.5420   40.1280 H     163  OCA163163    0.0263
     16 H          32.1774   38.1143   41.8223 H     163  OCA163163    0.0265
     17 H          33.5160   37.8487   40.7106 H     163  OCA163163    0.0265
     18 H          33.0973   35.5941   40.5353 H     163  OCA163163    0.0265
     19 H          31.4321   35.7761   41.0898 H     163  OCA163163    0.0265
     20 H          33.9192   35.9403   42.7496 H     163  OCA163163    0.0265
     21 H          32.6497   34.7293   42.8337 H     163  OCA163163    0.0265
     22 H          31.1086   36.7516   43.3037 H     163  OCA163163    0.0269
     23 H          32.6125   37.5555   43.7387 H     163  OCA163163    0.0269
     24 H          32.2562   36.6903   45.7780 H     163  OCA163163    0.0325
     25 H          32.8370   35.1958   45.0642 H     163  OCA163163    0.0325
@<TRIPOS>UNITY_ATOM_ATTR
9 1
charge -1
@<TRIPOS>BOND
     1     1     2    1
     2     2     3    1
     3     3     4    1
     4     4     5    1
     5     5     6    1
     6     6     7    1
     7    10     8   ar
     8     7     8    1
     9     8     9   ar
    10     1    11    1
    11     1    12    1
    12     1    13    1
    13     2    14    1
    14     2    15    1
    15     3    16    1
    16     3    17    1
    17     4    18    1
    18     4    19    1
    19     5    20    1
    20     5    21    1
    21     6    22    1
    22     6    23    1
    23     7    24    1
    24     7    25    1
