@<TRIPOS>MOLECULE
./divided-files/3nq9/LIGAND.pdb
 10 9 0 0 0
SMALL
GASTEIGER

@<TRIPOS>ATOM
      1  C8        32.4110   38.8080   38.7930 C.3   163  OCA163      0.0000
      2  C7        31.6170   37.9750   39.7730 C.3   163  OCA163      0.0000
      3  C6        32.5060   37.5890   40.9500 C.3   163  OCA163      0.0000
      4  C5        32.4450   36.0960   41.2190 C.3   163  OCA163      0.0000
      5  C4        32.8700   35.7590   42.6440 C.3   163  OCA163      0.0006
      6  C3        32.1120   36.6140   43.6490 C.3   163  OCA163      0.0118
      7  C2        32.0790   35.9500   45.0260 C.3   163  OCA163      0.1141
      8  C1        30.7370   35.3050   45.2710 C.2   163  OCA163      0.3649
      9  O2        30.7030   34.2720   45.9700 O.co2 163  OCA163     -0.2457
     10  O1        29.7090   35.8170   44.7660 O.co2 163  OCA163     -0.2457
@<TRIPOS>BOND
     1     1     2    1
     2     2     3    1
     3     3     4    1
     4     4     5    1
     5     5     6    1
     6     6     7    1
     7    10     8   ar
     8     7     8    1
     9     8     9   ar
