@<TRIPOS>MOLECULE
B5R
   41    42     1     0     0
SMALL
bcc


@<TRIPOS>ATOM
      1 C21         47.3180    36.3010    47.3890 ca       248 B5R      -0.240000
      2 H           48.2550    35.8820    47.4980 ha       248 B5R       0.158000
      3 C20         46.3540    35.6500    46.6260 ca       248 B5R       0.169900
      4 F20         46.7010    34.4830    46.0430 f        248 B5R      -0.122900
      5 C19         45.0870    36.2150    46.4850 ca       248 B5R      -0.054600
      6 CL19        43.8540    35.4920    45.5080 cl       248 B5R      -0.063400
      7 C18         44.7950    37.4190    47.1200 ca       248 B5R      -0.071000
      8 H1          43.8530    37.8320    47.0240 ha       248 B5R       0.159000
      9 C17         45.7570    38.0720    47.8830 ca       248 B5R      -0.156000
     10 H2          45.5330    38.9630    48.3530 ha       248 B5R       0.165000
     11 C16         47.0260    37.5140    48.0070 ca       248 B5R       0.149100
     12 O14         48.0340    38.2380    48.5590 os       248 B5R      -0.321900
     13 C13         48.2640    37.9690    49.9490 c3       248 B5R       0.129400
     14 H3          47.4330    38.3030    50.5330 h1       248 B5R       0.061700
     15 H4          48.3800    36.9210    50.1300 h1       248 B5R       0.061700
     16 C11         49.5190    38.7410    50.3250 c3       248 B5R       0.089800
     17 O11         49.5040    38.9780    51.7350 oh       248 B5R      -0.600800
     18 H5          50.3000    39.4710    51.9880 ho       248 B5R       0.425000
     19 C12         50.7620    37.9410    49.9310 c3       248 B5R      -0.121100
     20 H6          51.6400    38.4920    50.2000 hc       248 B5R       0.066367
     21 H7          50.7570    37.7720    48.8740 hc       248 B5R       0.066367
     22 H8          50.7590    37.0020    50.4440 hc       248 B5R       0.066367
     23 C10         49.4920    40.0790    49.5830 c        248 B5R       0.651100
     24 O10         50.0290    40.1950    48.4820 o        248 B5R      -0.560100
     25 N9          48.8160    41.0410    50.2090 n        248 B5R      -0.461100
     26 H9          48.4200    40.8120    51.0810 hn       248 B5R       0.332500
     27 C6          48.6270    42.2830    49.7680 ca       248 B5R       0.096600
     28 C5          49.0410    42.7310    48.5150 ca       248 B5R      -0.127000
     29 H10         49.5910    42.0970    47.9150 ha       248 B5R       0.198000
     30 C4          48.7360    44.0100    48.0420 ca       248 B5R      -0.100300
     31 C7          49.1540    44.4190    46.6160 c3       248 B5R       0.686200
     32 F2          49.5670    45.6810    46.5260 f        248 B5R      -0.229300
     33 F1          50.1640    43.6920    46.1500 f        248 B5R      -0.229300
     34 F3          48.1340    44.2670    45.7780 f        248 B5R      -0.229300
     35 C3          47.9940    44.8470    48.8800 ca       248 B5R       0.001000
     36 C8          47.6160    46.1780    48.5140 cg       248 B5R       0.220800
     37 N8          47.3140    47.2400    48.2380 n1       248 B5R      -0.330800
     38 C2          47.5800    44.4140    50.1360 ca       248 B5R      -0.068000
     39 H12         47.0350    45.0480    50.7410 ha       248 B5R       0.155000
     40 C1          47.8930    43.1360    50.5840 ca       248 B5R      -0.170000
     41 H11         47.5840    42.8230    51.5170 ha       248 B5R       0.145000
@<TRIPOS>BOND
     1     1     2 1   
     2     1     3 ar  
     3     1    11 ar  
     4     3     4 1   
     5     3     5 ar  
     6     5     6 1   
     7     5     7 ar  
     8     7     8 1   
     9     7     9 ar  
    10     9    10 1   
    11     9    11 ar  
    12    11    12 1   
    13    12    13 1   
    14    13    14 1   
    15    13    15 1   
    16    13    16 1   
    17    16    17 1   
    18    16    19 1   
    19    16    23 1   
    20    17    18 1   
    21    19    20 1   
    22    19    21 1   
    23    19    22 1   
    24    23    24 2   
    25    23    25 1   
    26    25    26 1   
    27    25    27 1   
    28    27    28 ar  
    29    27    40 ar  
    30    28    29 1   
    31    28    30 ar  
    32    30    31 1   
    33    30    35 ar  
    34    31    32 1   
    35    31    33 1   
    36    31    34 1   
    37    35    36 1   
    38    35    38 ar  
    39    36    37 3   
    40    38    39 1   
    41    38    40 ar  
    42    40    41 1   
@<TRIPOS>SUBSTRUCTURE
     1 B5R         1 TEMP              0 ****  ****    0 ROOT
