@<TRIPOS>MOLECULE
./divided-files/5fnr/LIGAND.pdb
 35 37 0 0 0
SMALL
GASTEIGER

@<TRIPOS>ATOM
      1 C6         43.9900   42.6610   29.1350 C.ar  290  XMS290290   -0.0286
      2 C5         44.6640   43.2190   28.0240 C.ar  290  XMS290290    0.1130
      3 N4         44.9470   42.7430   26.7780 N.ar  290  XMS290290   -0.1295
      4 N3         45.6090   43.6590   26.0920 N.ar  290  XMS290290   -0.0648
      5 N2         45.7590   44.7420   26.9010 N.ar  290  XMS290290   -0.2470
      6 C1         46.4560   45.9280   26.4210 C.3   290  XMS290290    0.0325
      7 C10        45.1850   44.5050   28.1080 C.ar  290  XMS290290    0.0887
      8 C9         45.0430   45.2450   29.2880 C.ar  290  XMS290290   -0.0342
      9 C8         44.3780   44.6890   30.3780 C.ar  290  XMS290290   -0.0559
     10 C7         43.8450   43.3960   30.3190 C.ar  290  XMS290290   -0.0374
     11 C11        43.1100   42.7470   31.4870 C.3   290  XMS290290    0.0144
     12 C12        43.3360   43.4180   32.8410 C.3   290  XMS290290   -0.0024
     13 C13        44.7880   43.3630   33.2960 C.2   290  XMS290290    0.0426
     14 O14        45.3660   44.4480   33.5110 O.co2 290  XMS290290   -0.5498
     15 O15        45.3220   42.2410   33.4260 O.co2 290  XMS290290   -0.5498
     16 C16        41.6300   42.5860   31.1720 C.ar  290  XMS290290   -0.0395
     17 C17        40.9460   41.4890   31.6870 C.ar  290  XMS290290   -0.0566
     18 C18        39.5990   41.3090   31.4220 C.ar  290  XMS290290   -0.0431
     19 C19        38.9320   42.2210   30.6430 C.ar  290  XMS290290    0.0410
     20 Cl20       37.2390   41.9900   30.3120 Cl    290  XMS290290   -0.0835
     21 C21        39.5840   43.3170   30.1190 C.ar  290  XMS290290   -0.0431
     22 C22        40.9330   43.5000   30.3830 C.ar  290  XMS290290   -0.0566
     23 H          43.6025   41.7065   29.0733 H     290  XMS290290    0.0643
     24 H          46.7811   45.7677   25.4143 H     290  XMS290290    0.0473
     25 H          47.3049   46.1193   27.0437 H     290  XMS290290    0.0473
     26 H          45.7940   46.7680   26.4525 H     290  XMS290290    0.0473
     27 H          45.4300   46.1997   29.3499 H     290  XMS290290    0.0639
     28 H          44.2764   45.2400   31.2446 H     290  XMS290290    0.0621
     29 H          43.5480   41.7771   31.5979 H     290  XMS290290    0.0401
     30 H          42.7305   42.9240   33.5719 H     290  XMS290290    0.0334
     31 H          43.0720   44.4495   32.7356 H     290  XMS290290    0.0334
     32 H          41.4477   40.8028   32.2722 H     290  XMS290290    0.0621
     33 H          39.0990   40.4931   31.8084 H     290  XMS290290    0.0632
     34 H          39.0719   43.9962   29.5346 H     290  XMS290290    0.0632
     35 H          41.4247   44.3190   29.9925 H     290  XMS290290    0.0621
@<TRIPOS>UNITY_ATOM_ATTR
14 1
charge -1
@<TRIPOS>BOND
     1     4     3   ar
     2     4     5   ar
     3     6     5    1
     4     3     2   ar
     5     5     7   ar
     6     2     7   ar
     7     2     1   ar
     8     7     8   ar
     9     1    10   ar
    10     8     9   ar
    11    21    22   ar
    12    21    19   ar
    13    20    19    1
    14    10     9   ar
    15    10    11    1
    16    22    16   ar
    17    19    18   ar
    18    16    11    1
    19    16    17   ar
    20    18    17   ar
    21    11    12    1
    22    12    13    1
    23    13    15   ar
    24    13    14   ar
    25     1    23    1
    26     6    24    1
    27     6    25    1
    28     6    26    1
    29     8    27    1
    30     9    28    1
    31    11    29    1
    32    12    30    1
    33    12    31    1
    34    17    32    1
    35    18    33    1
    36    21    34    1
    37    22    35    1
