@<TRIPOS>MOLECULE
./divided-files/5fnr/LIGAND.pdb
 22 24 0 0 0
SMALL
GASTEIGER

@<TRIPOS>ATOM
      1  C6        43.9900   42.6610   29.1350 C.ar  290  XMS290      0.0185
      2  C5        44.6640   43.2190   28.0240 C.ar  290  XMS290      0.1214
      3  N4        44.9470   42.7430   26.7780 N.ar  290  XMS290     -0.1288
      4  N3        45.6090   43.6590   26.0920 N.ar  290  XMS290     -0.0638
      5  N2        45.7590   44.7420   26.9010 N.ar  290  XMS290     -0.2297
      6  C1        46.4560   45.9280   26.4210 C.3   290  XMS290      0.1555
      7  C10       45.1850   44.5050   28.1080 C.ar  290  XMS290      0.0988
      8  C9        45.0430   45.2450   29.2880 C.ar  290  XMS290      0.0201
      9  C8        44.3780   44.6890   30.3780 C.ar  290  XMS290     -0.0023
     10  C7        43.8450   43.3960   30.3190 C.ar  290  XMS290     -0.0162
     11  C11       43.1100   42.7470   31.4870 C.3   290  XMS290      0.0559
     12  C12       43.3360   43.4180   32.8410 C.3   290  XMS290      0.1227
     13  C13       44.7880   43.3630   33.2960 C.2   290  XMS290      0.3655
     14  O14       45.3660   44.4480   33.5110 O.co2 290  XMS290     -0.2456
     15  O15       45.3220   42.2410   33.4260 O.co2 290  XMS290     -0.2456
     16  C16       41.6300   42.5860   31.1720 C.ar  290  XMS290     -0.0178
     17  C17       40.9460   41.4890   31.6870 C.ar  290  XMS290     -0.0031
     18  C18       39.5990   41.3090   31.4220 C.ar  290  XMS290      0.0111
     19  C19       38.9320   42.2210   30.6430 C.ar  290  XMS290      0.0577
     20 Cl20       37.2390   41.9900   30.3120 Cl    290  XMS290     -0.0822
     21  C21       39.5840   43.3170   30.1190 C.ar  290  XMS290      0.0111
     22  C22       40.9330   43.5000   30.3830 C.ar  290  XMS290     -0.0031
@<TRIPOS>BOND
     1     4     3   ar
     2     4     5   ar
     3     6     5    1
     4     3     2   ar
     5     5     7   ar
     6     2     7   ar
     7     2     1   ar
     8     7     8   ar
     9     1    10   ar
    10     8     9   ar
    11    21    22   ar
    12    21    19   ar
    13    20    19    1
    14    10     9   ar
    15    10    11    1
    16    22    16   ar
    17    19    18   ar
    18    16    11    1
    19    16    17   ar
    20    18    17   ar
    21    11    12    1
    22    12    13    1
    23    13    15   ar
    24    13    14   ar
