@<TRIPOS>MOLECULE
7BW
   37    38     1     0     0
SMALL
bcc


@<TRIPOS>ATOM
      1 N16         44.0120    42.8140    29.6670 n1       372 7BW      -0.343800
      2 C15         44.7730    41.9650    29.8680 cg       372 7BW       0.233800
      3 C14         45.7090    40.9210    30.1150 ca       372 7BW      -0.017000
      4 C17         45.3030    39.7630    30.7880 ca       372 7BW      -0.099000
      5 H35         44.4090    39.6760    31.0760 ha       372 7BW       0.168000
      6 C12         47.0300    41.0160    29.7050 ca       372 7BW       0.128900
      7 F13         47.4300    42.1340    29.0540 f        372 7BW      -0.125900
      8 C11         47.9330    40.0120    29.9420 ca       372 7BW      -0.136000
      9 H34         48.8270    40.1000    29.6530 ha       372 7BW       0.157000
     10 C10         47.5300    38.8710    30.6050 ca       372 7BW      -0.159000
     11 H33         48.1450    38.1820    30.7680 ha       372 7BW       0.150000
     12 C9          46.2100    38.7400    31.0320 ca       372 7BW       0.113100
     13 O8          45.7060    37.6480    31.6990 os       372 7BW      -0.324900
     14 C7          46.5240    36.4730    31.8250 c3       372 7BW       0.097400
     15 H32         47.3490    36.6920    32.2950 h1       372 7BW       0.048200
     16 H31         46.7540    36.1300    30.9350 h1       372 7BW       0.048200
     17 C6          45.7500    35.4250    32.6020 c3       372 7BW       0.107000
     18 H30         44.9460    35.1810    32.0940 h1       372 7BW       0.075700
     19 H29         45.4600    35.8100    33.4560 h1       372 7BW       0.075700
     20 N5          46.5250    34.2250    32.8610 n        372 7BW      -0.490800
     21 C4          46.6890    33.1790    31.8590 c3       372 7BW       0.093000
     22 H27         45.8180    32.8630    31.5430 h1       372 7BW       0.047200
     23 H28         47.1970    33.5100    31.0930 h1       372 7BW       0.047200
     24 C2          47.4600    32.0370    32.5830 c3       372 7BW      -0.063000
     25 C1          46.5720    30.7870    32.7360 c3       372 7BW      -0.088100
     26 H22         47.0260    30.0130    32.3530 hc       372 7BW       0.042200
     27 H23         45.7260    30.9290    32.2730 hc       372 7BW       0.042200
     28 H21         46.3990    30.6240    33.6820 hc       372 7BW       0.042200
     29 C3          48.7400    31.6710    31.8050 c3       372 7BW      -0.088100
     30 H24         49.5230    31.8890    32.3440 hc       372 7BW       0.042200
     31 H25         48.7730    32.1770    30.9700 hc       372 7BW       0.042200
     32 H26         48.7420    30.7160    31.6050 hc       372 7BW       0.042200
     33 C20         47.8100    32.6340    33.9690 c3       372 7BW      -0.154400
     34 H36         48.7790    32.7220    34.0740 hc       372 7BW       0.084700
     35 H37         47.4730    32.0610    34.6880 hc       372 7BW       0.084700
     36 C18         47.1510    33.9820    34.0210 c        372 7BW       0.699500
     37 O19         47.1800    34.7470    34.9750 o        372 7BW      -0.621500
@<TRIPOS>BOND
     1     1     2 3   
     2     2     3 1   
     3     3     4 ar  
     4     3     6 ar  
     5     4     5 1   
     6     4    12 ar  
     7     6     7 1   
     8     6     8 ar  
     9     8     9 1   
    10     8    10 ar  
    11    10    11 1   
    12    10    12 ar  
    13    12    13 1   
    14    13    14 1   
    15    14    15 1   
    16    14    16 1   
    17    14    17 1   
    18    17    18 1   
    19    17    19 1   
    20    17    20 1   
    21    20    21 1   
    22    20    36 1   
    23    21    22 1   
    24    21    23 1   
    25    21    24 1   
    26    24    25 1   
    27    24    29 1   
    28    24    33 1   
    29    25    26 1   
    30    25    27 1   
    31    25    28 1   
    32    29    30 1   
    33    29    31 1   
    34    29    32 1   
    35    33    34 1   
    36    33    35 1   
    37    33    36 1   
    38    36    37 2   
@<TRIPOS>SUBSTRUCTURE
     1 7BW         1 TEMP              0 ****  ****    0 ROOT
