@<TRIPOS>MOLECULE
./divided-files/3wz8/LIGAND.pdb
 58 61 0 0 0
SMALL
GASTEIGER

@<TRIPOS>ATOM
      1 C24        40.4240   49.7030   31.4600 C.ar  331  IXV331331   -0.0600
      2 C22        40.5560   49.4020   32.8050 C.ar  331  IXV331331   -0.0409
      3 C26        39.8930   48.7650   30.5910 C.ar  331  IXV331331   -0.0616
      4 C25        39.4910   47.5280   31.0670 C.ar  331  IXV331331   -0.0600
      5 C23        39.6210   47.2230   32.4120 C.ar  331  IXV331331   -0.0409
      6 C21        40.1590   48.1640   33.2810 C.ar  331  IXV331331    0.0271
      7 N2         40.3090   47.8980   34.6590 N.pl3 331  IXV331331   -0.3434
      8 C20        40.7310   48.8800   35.6630 C.3   331  IXV331331    0.0174
      9 C19        39.5240   49.5050   36.3410 C.3   331  IXV331331    0.0397
     10 C18        39.9140   50.5510   37.3640 C.2   331  IXV331331    0.2191
     11 O1         41.0720   50.8310   37.5770 O.2   331  IXV331331   -0.2754
     12 N1         38.9040   51.1950   38.0380 N.am  331  IXV331331   -0.2793
     13 C2         39.0180   51.7970   39.3090 C.ar  331  IXV331331    0.0845
     14 S          39.6960   53.2380   39.5010 S.2   331  IXV331331   -0.0805
     15 C          39.5340   53.3580   41.0920 C.ar  331  IXV331331   -0.0141
     16 C1         38.9290   52.2090   41.5790 C.ar  331  IXV331331    0.0031
     17 C4         38.6410   52.0270   43.0190 C.ar  331  IXV331331   -0.0166
     18 C6         38.0440   53.0650   43.7150 C.ar  331  IXV331331   -0.0540
     19 C8         37.7660   52.9310   45.0670 C.ar  331  IXV331331   -0.0612
     20 C9         38.0790   51.7550   45.7280 C.ar  331  IXV331331   -0.0617
     21 C7         38.6760   50.7140   45.0320 C.ar  331  IXV331331   -0.0612
     22 C5         38.9600   50.8480   43.6780 C.ar  331  IXV331331   -0.0540
     23 C3         38.6320   51.3020   40.5530 C.ar  331  IXV331331    0.0728
     24 C10        37.9670   49.9970   40.7740 C.2   331  IXV331331    0.2473
     25 O          36.8050   49.9470   41.1020 O.2   331  IXV331331   -0.2701
     26 N          38.6960   48.8310   40.6040 N.am  331  IXV331331   -0.3072
     27 C11        38.0950   47.4830   40.5200 C.3   331  IXV331331    0.0371
     28 C12        37.7290   47.0560   39.1180 C.ar  331  IXV331331   -0.0303
     29 C14        38.3030   45.9420   38.5360 C.ar  331  IXV331331   -0.0571
     30 C16        37.9430   45.5800   37.2450 C.ar  331  IXV331331   -0.0615
     31 C17        37.0120   46.3240   36.5370 C.ar  331  IXV331331   -0.0617
     32 C15        36.4380   47.4430   37.1200 C.ar  331  IXV331331   -0.0615
     33 C13        36.8000   47.8030   38.4090 C.ar  331  IXV331331   -0.0571
     34 H          40.7211   50.6256   31.1056 H     331  IXV331331    0.0618
     35 H          40.9507   50.1012   33.4534 H     331  IXV331331    0.0636
     36 H          39.7967   48.9877   29.5879 H     331  IXV331331    0.0618
     37 H          39.0934   46.8314   30.4177 H     331  IXV331331    0.0618
     38 H          39.3198   46.3018   32.7666 H     331  IXV331331    0.0636
     39 H          40.1157   46.9840   34.9696 H     331  IXV331331    0.1461
     40 H          41.3025   49.6480   35.1850 H     331  IXV331331    0.0466
     41 H          41.3233   48.3835   36.4030 H     331  IXV331331    0.0466
     42 H          38.9684   48.7339   36.8326 H     331  IXV331331    0.0374
     43 H          38.9399   49.9887   35.5862 H     331  IXV331331    0.0374
     44 H          38.0255   51.2401   37.5959 H     331  IXV331331    0.1553
     45 H          39.8330   54.1636   41.6636 H     331  IXV331331    0.0700
     46 H          37.8051   53.9416   43.2256 H     331  IXV331331    0.0624
     47 H          37.3250   53.7093   45.5816 H     331  IXV331331    0.0618
     48 H          37.8692   51.6536   46.7333 H     331  IXV331331    0.0618
     49 H          38.9103   49.8363   45.5217 H     331  IXV331331    0.0618
     50 H          39.4070   50.0727   43.1640 H     331  IXV331331    0.0624
     51 H          39.6753   48.9049   40.5348 H     331  IXV331331    0.1493
     52 H          38.7965   46.7774   40.9136 H     331  IXV331331    0.0512
     53 H          37.1836   47.5166   41.0796 H     331  IXV331331    0.0512
     54 H          38.9953   45.3823   39.0580 H     331  IXV331331    0.0621
     55 H          38.3725   44.7494   36.8084 H     331  IXV331331    0.0618
     56 H          36.7471   46.0458   35.5792 H     331  IXV331331    0.0618
     57 H          35.7464   48.0039   36.5984 H     331  IXV331331    0.0618
     58 H          36.3738   48.6354   38.8455 H     331  IXV331331    0.0621
@<TRIPOS>BOND
     1     3     4   ar
     2     3     1   ar
     3     4     5   ar
     4     1     2   ar
     5     5     6   ar
     6     2     6   ar
     7     6     7    1
     8     7     8    1
     9     8     9    1
    10     9    10    1
    11    31    32   ar
    12    31    30   ar
    13    32    33   ar
    14    30    29   ar
    15    10    11    2
    16    10    12   am
    17    12    13    1
    18    33    28   ar
    19    29    28   ar
    20    28    27    1
    21    13    14   ar
    22    13    23   ar
    23    14    15   ar
    24    27    26    1
    25    23    24    1
    26    23    16   ar
    27    26    24   am
    28    24    25    2
    29    15    16   ar
    30    16    17    1
    31    17    22   ar
    32    17    18   ar
    33    22    21   ar
    34    18    19   ar
    35    21    20   ar
    36    19    20   ar
    37     1    34    1
    38     2    35    1
    39     3    36    1
    40     4    37    1
    41     5    38    1
    42     7    39    1
    43     8    40    1
    44     8    41    1
    45     9    42    1
    46     9    43    1
    47    12    44    1
    48    15    45    1
    49    18    46    1
    50    19    47    1
    51    20    48    1
    52    21    49    1
    53    22    50    1
    54    26    51    1
    55    27    52    1
    56    27    53    1
    57    29    54    1
    58    30    55    1
    59    31    56    1
    60    32    57    1
    61    33    58    1
