@<TRIPOS>MOLECULE
./divided-files/3wz8/LIGAND.pdb
 33 36 0 0 0
SMALL
GASTEIGER

@<TRIPOS>ATOM
      1  C24       40.4240   49.7030   31.4600 C.ar  331  IXV331      0.0013
      2  C22       40.5560   49.4020   32.8050 C.ar  331  IXV331      0.0161
      3  C26       39.8930   48.7650   30.5910 C.ar  331  IXV331      0.0001
      4  C25       39.4910   47.5280   31.0670 C.ar  331  IXV331      0.0013
      5  C23       39.6210   47.2230   32.4120 C.ar  331  IXV331      0.0161
      6  C21       40.1590   48.1640   33.2810 C.ar  331  IXV331      0.0653
      7  N2        40.3090   47.8980   34.6590 N.pl3 331  IXV331     -0.2371
      8  C20       40.7310   48.8800   35.6630 C.3   331  IXV331      0.1218
      9  C19       39.5240   49.5050   36.3410 C.3   331  IXV331      0.1105
     10  C18       39.9140   50.5510   37.3640 C.2   331  IXV331      0.2478
     11  O1        41.0720   50.8310   37.5770 O.2   331  IXV331     -0.2729
     12  N1        38.9040   51.1950   38.0380 N.am  331  IXV331     -0.1724
     13  C2        39.0180   51.7970   39.3090 C.ar  331  IXV331      0.1071
     14  S         39.6960   53.2380   39.5010 S.2   331  IXV331     -0.0698
     15  C         39.5340   53.3580   41.0920 C.ar  331  IXV331      0.0369
     16  C1        38.9290   52.2090   41.5790 C.ar  331  IXV331      0.0127
     17  C4        38.6410   52.0270   43.0190 C.ar  331  IXV331      0.0007
     18  C6        38.0440   53.0650   43.7150 C.ar  331  IXV331      0.0000
     19  C8        37.7660   52.9310   45.0670 C.ar  331  IXV331      0.0000
     20  C9        38.0790   51.7550   45.7280 C.ar  331  IXV331      0.0000
     21  C7        38.6760   50.7140   45.0320 C.ar  331  IXV331      0.0000
     22  C5        38.9600   50.8480   43.6780 C.ar  331  IXV331      0.0000
     23  C3        38.6320   51.3020   40.5530 C.ar  331  IXV331      0.0770
     24  C10       37.9670   49.9970   40.7740 C.2   331  IXV331      0.2669
     25  O         36.8050   49.9470   41.1020 O.2   331  IXV331     -0.2683
     26  N         38.6960   48.8310   40.6040 N.am  331  IXV331     -0.1967
     27  C11       38.0950   47.4830   40.5200 C.3   331  IXV331      0.1418
     28  C12       37.7290   47.0560   39.1180 C.ar  331  IXV331     -0.0006
     29  C14       38.3030   45.9420   38.5360 C.ar  331  IXV331     -0.0026
     30  C16       37.9430   45.5800   37.2450 C.ar  331  IXV331     -0.0003
     31  C17       37.0120   46.3240   36.5370 C.ar  331  IXV331     -0.0000
     32  C15       36.4380   47.4430   37.1200 C.ar  331  IXV331     -0.0003
     33  C13       36.8000   47.8030   38.4090 C.ar  331  IXV331     -0.0026
@<TRIPOS>BOND
     1     3     4   ar
     2     3     1   ar
     3     4     5   ar
     4     1     2   ar
     5     5     6   ar
     6     2     6   ar
     7     6     7    1
     8     7     8    1
     9     8     9    1
    10     9    10    1
    11    31    32   ar
    12    31    30   ar
    13    32    33   ar
    14    30    29   ar
    15    10    11    2
    16    10    12   am
    17    12    13    1
    18    33    28   ar
    19    29    28   ar
    20    28    27    1
    21    13    14   ar
    22    13    23   ar
    23    14    15   ar
    24    27    26    1
    25    23    24    1
    26    23    16   ar
    27    26    24   am
    28    24    25    2
    29    15    16   ar
    30    16    17    1
    31    17    22   ar
    32    17    18   ar
    33    22    21   ar
    34    18    19   ar
    35    21    20   ar
    36    19    20   ar
