@<TRIPOS>MOLECULE
./divided-files/5lz4/LIGAND.pdb
 37 38 0 0 0
SMALL
GASTEIGER

@<TRIPOS>ATOM
      1 N16        44.0120   42.8140   29.6670 N.1   372  7BW372372   -0.1908
      2 C15        44.7730   41.9650   29.8680 C.1   372  7BW372372    0.1021
      3 C14        45.7090   40.9210   30.1150 C.ar  372  7BW372372    0.0903
      4 C17        45.3030   39.7630   30.7880 C.ar  372  7BW372372    0.0002
      5 C12        47.0300   41.0160   29.7050 C.ar  372  7BW372372    0.1409
      6 F13        47.4300   42.1340   29.0540 F     372  7BW372372   -0.2041
      7 C11        47.9330   40.0120   29.9420 C.ar  372  7BW372372   -0.0217
      8 C10        47.5300   38.8710   30.6050 C.ar  372  7BW372372   -0.0172
      9 C9         46.2100   38.7400   31.0320 C.ar  372  7BW372372    0.1220
     10 O8         45.7060   37.6480   31.6990 O.3   372  7BW372372   -0.4904
     11 C7         46.5240   36.4730   31.8250 C.3   372  7BW372372    0.1052
     12 C6         45.7500   35.4250   32.6020 C.3   372  7BW372372    0.0489
     13 N5         46.5250   34.2250   32.8610 N.am  372  7BW372372   -0.2977
     14 C4         46.6890   33.1790   31.8590 C.3   372  7BW372372    0.0204
     15 C2         47.4600   32.0370   32.5830 C.3   372  7BW372372   -0.0109
     16 C1         46.5720   30.7870   32.7360 C.3   372  7BW372372   -0.0579
     17 C3         48.7400   31.6710   31.8050 C.3   372  7BW372372   -0.0579
     18 C20        47.8100   32.6340   33.9690 C.3   372  7BW372372    0.0307
     19 C18        47.1510   33.9820   34.0210 C.2   372  7BW372372    0.2162
     20 O19        47.1800   34.7470   34.9750 O.2   372  7BW372372   -0.2756
     21 H          44.3252   39.6689   31.1044 H     372  7BW372372    0.0668
     22 H          48.9105   40.1093   29.6257 H     372  7BW372372    0.0648
     23 H          48.2072   38.1134   30.7849 H     372  7BW372372    0.0655
     24 H          47.4257   36.7159   32.3473 H     372  7BW372372    0.0712
     25 H          46.7755   36.0972   30.8553 H     372  7BW372372    0.0712
     26 H          44.8813   35.1551   32.0386 H     372  7BW372372    0.0498
     27 H          45.4944   35.8521   33.5492 H     372  7BW372372    0.0498
     28 H          45.7355   32.8316   31.5199 H     372  7BW372372    0.0470
     29 H          47.2141   33.5311   30.9958 H     372  7BW372372    0.0470
     30 H          46.3428   30.3917   31.7685 H     372  7BW372372    0.0236
     31 H          45.6646   31.0532   33.2366 H     372  7BW372372    0.0236
     32 H          47.0920   30.0481   33.3091 H     372  7BW372372    0.0236
     33 H          48.4739   31.2615   30.8530 H     372  7BW372372    0.0236
     34 H          49.3004   30.9481   32.3602 H     372  7BW372372    0.0236
     35 H          49.3339   32.5495   31.6620 H     372  7BW372372    0.0236
     36 H          48.8702   32.7348   34.0728 H     372  7BW372372    0.0364
     37 H          47.4707   32.0024   34.7633 H     372  7BW372372    0.0364
@<TRIPOS>BOND
     1     6     5    1
     2     1     2    3
     3     5     7   ar
     4     5     3   ar
     5     2     3    1
     6     7     8   ar
     7     3     4   ar
     8     8     9   ar
     9     4     9   ar
    10     9    10    1
    11    10    11    1
    12    17    15    1
    13    11    12    1
    14    14    15    1
    15    14    13    1
    16    15    16    1
    17    15    18    1
    18    12    13    1
    19    13    19   am
    20    18    19    1
    21    19    20    2
    22     4    21    1
    23     7    22    1
    24     8    23    1
    25    11    24    1
    26    11    25    1
    27    12    26    1
    28    12    27    1
    29    14    28    1
    30    14    29    1
    31    16    30    1
    32    16    31    1
    33    16    32    1
    34    17    33    1
    35    17    34    1
    36    17    35    1
    37    18    36    1
    38    18    37    1
