@<TRIPOS>MOLECULE
./divided-files/5lz4/LIGAND.pdb
 20 21 0 0 0
SMALL
GASTEIGER

@<TRIPOS>ATOM
      1  N16       44.0120   42.8140   29.6670 N.1   372  7BW372     -0.1908
      2  C15       44.7730   41.9650   29.8680 C.1   372  7BW372      0.1028
      3  C14       45.7090   40.9210   30.1150 C.ar  372  7BW372      0.0988
      4  C17       45.3030   39.7630   30.7880 C.ar  372  7BW372      0.0494
      5  C12       47.0300   41.0160   29.7050 C.ar  372  7BW372      0.1499
      6  F13       47.4300   42.1340   29.0540 F     372  7BW372     -0.2035
      7  C11       47.9330   40.0120   29.9420 C.ar  372  7BW372      0.0334
      8  C10       47.5300   38.8710   30.6050 C.ar  372  7BW372      0.0392
      9  C9        46.2100   38.7400   31.0320 C.ar  372  7BW372      0.1395
     10  O8        45.7060   37.6480   31.6990 O.3   372  7BW372     -0.4736
     11  C7        46.5240   36.4730   31.8250 C.3   372  7BW372      0.2268
     12  C6        45.7500   35.4250   32.6020 C.3   372  7BW372      0.1406
     13  N5        46.5250   34.2250   32.8610 N.am  372  7BW372     -0.2757
     14  C4        46.6890   33.1790   31.8590 C.3   372  7BW372      0.0939
     15  C2        47.4600   32.0370   32.5830 C.3   372  7BW372      0.0269
     16  C1        46.5720   30.7870   32.7360 C.3   372  7BW372      0.0022
     17  C3        48.7400   31.6710   31.8050 C.3   372  7BW372      0.0022
     18  C20       47.8100   32.6340   33.9690 C.3   372  7BW372      0.0869
     19  C18       47.1510   33.9820   34.0210 C.2   372  7BW372      0.2258
     20  O19       47.1800   34.7470   34.9750 O.2   372  7BW372     -0.2749
@<TRIPOS>BOND
     1     6     5    1
     2     1     2    3
     3     5     7   ar
     4     5     3   ar
     5     2     3    1
     6     7     8   ar
     7     3     4   ar
     8     8     9   ar
     9     4     9   ar
    10     9    10    1
    11    10    11    1
    12    17    15    1
    13    11    12    1
    14    14    15    1
    15    14    13    1
    16    15    16    1
    17    15    18    1
    18    12    13    1
    19    13    19   am
    20    18    19    1
    21    19    20    2
