@<TRIPOS>MOLECULE
XMS
   35    37     1     0     0
SMALL
bcc


@<TRIPOS>ATOM
      1 C6          43.9900    42.6610    29.1350 ca       290 XMS      -0.071000
      2 H6          43.6370    41.7880    29.0790 ha       290 XMS       0.149000
      3 C5          44.6640    43.2190    28.0240 ca       290 XMS      -0.001600
      4 N4          44.9470    42.7430    26.7780 nc       290 XMS      -0.225400
      5 N3          45.6090    43.6590    26.0920 nd       290 XMS      -0.163400
      6 N2          45.7590    44.7420    26.9010 na       290 XMS       0.032900
      7 C1          46.4560    45.9280    26.4210 c3       290 XMS       0.054600
      8 H1          47.4140    45.8280    26.5800 h1       290 XMS       0.048033
      9 H1A         46.2940    46.0350    25.4640 h1       290 XMS       0.048033
     10 H1B         46.1270    46.7140    26.8990 h1       290 XMS       0.048033
     11 C10         45.1850    44.5050    28.1080 ca       290 XMS      -0.079200
     12 C9          45.0430    45.2450    29.2880 ca       290 XMS      -0.148000
     13 H9          45.3960    46.1170    29.3440 ha       290 XMS       0.136000
     14 C8          44.3780    44.6890    30.3780 ca       290 XMS      -0.077000
     15 H8          44.2880    45.1920    31.1640 ha       290 XMS       0.218000
     16 C7          43.8450    43.3960    30.3190 ca       290 XMS      -0.075300
     17 C11         43.1100    42.7470    31.4870 c3       290 XMS       0.018900
     18 C12         43.3360    43.4180    32.8410 c3       290 XMS      -0.199400
     19 C13         44.7880    43.3630    33.2960 c        290 XMS       0.905600
     20 O14         45.3660    44.4480    33.5110 o        290 XMS      -0.840800
     21 O15         45.3220    42.2410    33.4260 o        290 XMS      -0.840800
     22 H12         43.0540    44.3550    32.7860 hc       290 XMS       0.037200
     23 H12A        42.7780    42.9730    33.5130 hc       290 XMS       0.037200
     24 H11         43.4750    41.8340    31.5680 hc       290 XMS       0.099700
     25 C16         41.6300    42.5860    31.1720 ca       290 XMS      -0.045300
     26 C17         40.9460    41.4890    31.6870 ca       290 XMS      -0.119500
     27 H17         41.4040    40.8640    32.2220 ha       290 XMS       0.147500
     28 C18         39.5990    41.3090    31.4220 ca       290 XMS      -0.130000
     29 H18         39.1440    40.5650    31.7740 ha       290 XMS       0.135000
     30 C19         38.9320    42.2210    30.6430 ca       290 XMS       0.002400
     31 CL20        37.2390    41.9900    30.3120 cl       290 XMS      -0.133400
     32 C21         39.5840    43.3170    30.1190 ca       290 XMS      -0.130000
     33 H21         39.1160    43.9370    29.5860 ha       290 XMS       0.135000
     34 C22         40.9330    43.5000    30.3830 ca       290 XMS      -0.119500
     35 H22         41.3810    44.2480    30.0260 ha       290 XMS       0.147500
@<TRIPOS>BOND
     1     1     2 1   
     2     1     3 ar  
     3     1    16 ar  
     4     3     4 1   
     5     3    11 ar  
     6     4     5 2   
     7     5     6 1   
     8     6     7 1   
     9     6    11 1   
    10     7     8 1   
    11     7     9 1   
    12     7    10 1   
    13    11    12 ar  
    14    12    13 1   
    15    12    14 ar  
    16    14    15 1   
    17    14    16 ar  
    18    16    17 1   
    19    17    18 1   
    20    17    24 1   
    21    17    25 1   
    22    18    19 1   
    23    18    22 1   
    24    18    23 1   
    25    19    20 1   
    26    19    21 1   
    27    25    26 ar  
    28    25    34 ar  
    29    26    27 1   
    30    26    28 ar  
    31    28    29 1   
    32    28    30 ar  
    33    30    31 1   
    34    30    32 ar  
    35    32    33 1   
    36    32    34 ar  
    37    34    35 1   
@<TRIPOS>SUBSTRUCTURE
     1 XMS         1 TEMP              0 ****  ****    0 ROOT
