@<TRIPOS>MOLECULE
./divided-files/4mre/LIGAND.pdb
 19 19 0 0 0
SMALL
GASTEIGER

@<TRIPOS>ATOM
      1 CAA        41.7310   33.1210   44.2650 C.3   151  2C9151151   -0.0379
      2 CAG        41.6560   34.5050   44.0270 C.ar  151  2C9151151   -0.0280
      3 CAE        41.5350   35.4240   45.0800 C.ar  151  2C9151151   -0.0570
      4 CAD        41.4490   36.8000   44.8380 C.ar  151  2C9151151   -0.0597
      5 CAF        41.4870   37.3070   43.5190 C.ar  151  2C9151151   -0.0392
      6 CAH        41.6020   36.3750   42.4730 C.ar  151  2C9151151    0.0458
      7 NAB        41.6300   36.7680   41.1820 N.pl3 151  2C9151151   -0.3565
      8 CAI        41.6910   35.0080   42.7250 C.ar  151  2C9151151    0.0484
      9 NAC        41.7880   34.1360   41.6820 N.pl3 151  2C9151151   -0.3563
     10 H          41.8191   32.6031   43.3329 H     151  2C9151151    0.0278
     11 H          40.8451   32.7975   44.7704 H     151  2C9151151    0.0278
     12 H          42.5858   32.9094   44.8728 H     151  2C9151151    0.0278
     13 H          41.5089   35.0788   46.0522 H     151  2C9151151    0.0621
     14 H          41.3567   37.4524   45.6323 H     151  2C9151151    0.0618
     15 H          41.4325   38.3204   43.3316 H     151  2C9151151    0.0636
     16 H          41.7111   36.0981   40.4652 H     151  2C9151151    0.1424
     17 H          41.5693   37.7246   40.9572 H     151  2C9151151    0.1424
     18 H          41.8138   34.4747   40.7580 H     151  2C9151151    0.1424
     19 H          41.8322   33.1674   41.8526 H     151  2C9151151    0.1424
@<TRIPOS>BOND
     1     7     6    1
     2     9     8    1
     3     6     8   ar
     4     6     5   ar
     5     8     2   ar
     6     5     4   ar
     7     2     1    1
     8     2     3   ar
     9     4     3   ar
    10     1    10    1
    11     1    11    1
    12     1    12    1
    13     3    13    1
    14     4    14    1
    15     5    15    1
    16     7    16    1
    17     7    17    1
    18     9    18    1
    19     9    19    1
