@<TRIPOS>MOLECULE
./divided-files/4mre/LIGAND.pdb
 9 9 0 0 0
SMALL
GASTEIGER

@<TRIPOS>ATOM
      1  CAA       41.7310   33.1210   44.2650 C.3   151  2C9151      0.0325
      2  CAG       41.6560   34.5050   44.0270 C.ar  151  2C9151     -0.0038
      3  CAE       41.5350   35.4240   45.0800 C.ar  151  2C9151     -0.0028
      4  CAD       41.4490   36.8000   44.8380 C.ar  151  2C9151      0.0011
      5  CAF       41.4870   37.3070   43.5190 C.ar  151  2C9151      0.0194
      6  CAH       41.6020   36.3750   42.4730 C.ar  151  2C9151      0.1054
      7  NAB       41.6300   36.7680   41.1820 N.pl3 151  2C9151     -0.1267
      8  CAI       41.6910   35.0080   42.7250 C.ar  151  2C9151      0.1018
      9  NAC       41.7880   34.1360   41.6820 N.pl3 151  2C9151     -0.1270
@<TRIPOS>BOND
     1     7     6    1
     2     9     8    1
     3     6     8   ar
     4     6     5   ar
     5     8     2   ar
     6     5     4   ar
     7     2     1    1
     8     2     3   ar
     9     4     3   ar
