@<TRIPOS>MOLECULE
2C9
   19    19     1     0     0
SMALL
bcc


@<TRIPOS>ATOM
      1 CAA         41.7310    33.1210    44.2650 c3       151 2C9      -0.046800
      2 H           41.6890    32.9370    45.3190 hc       151 2C9       0.041367
      3 H1          42.6510    32.7410    43.8740 hc       151 2C9       0.041367
      4 H2          40.9100    32.6310    43.7850 hc       151 2C9       0.041367
      5 CAG         41.6560    34.5050    44.0270 ca       151 2C9      -0.115300
      6 CAE         41.5350    35.4240    45.0800 ca       151 2C9      -0.118000
      7 H3          41.5100    35.0790    46.0530 ha       151 2C9       0.130000
      8 CAD         41.4490    36.8000    44.8380 ca       151 2C9      -0.145000
      9 H4          41.3580    37.4520    45.6330 ha       151 2C9       0.130000
     10 CAF         41.4870    37.3070    43.5190 ca       151 2C9      -0.151000
     11 H5          41.4320    38.3200    43.3320 ha       151 2C9       0.126000
     12 CAH         41.6020    36.3750    42.4730 ca       151 2C9       0.042600
     13 NAB         41.6300    36.7680    41.1820 nh       151 2C9      -0.794200
     14 H6          41.5700    37.7250    40.9570 hn       151 2C9       0.364800
     15 H7          41.7110    36.0980    40.4650 hn       151 2C9       0.364800
     16 CAI         41.6910    35.0080    42.7250 ca       151 2C9       0.126600
     17 NAC         41.7880    34.1360    41.6820 nh       151 2C9      -0.819200
     18 H8          41.8140    34.4750    40.7580 hn       151 2C9       0.390800
     19 H9          41.8330    33.1670    41.8530 hn       151 2C9       0.390800
@<TRIPOS>BOND
     1     1     2 1   
     2     1     3 1   
     3     1     4 1   
     4     1     5 1   
     5     5     6 ar  
     6     5    16 ar  
     7     6     7 1   
     8     6     8 ar  
     9     8     9 1   
    10     8    10 ar  
    11    10    11 1   
    12    10    12 ar  
    13    12    13 1   
    14    12    16 ar  
    15    13    14 1   
    16    13    15 1   
    17    16    17 1   
    18    17    18 1   
    19    17    19 1   
@<TRIPOS>SUBSTRUCTURE
     1 2C9         1 TEMP              0 ****  ****    0 ROOT
