@<TRIPOS>MOLECULE
GNF
   64    67     1     0     0
SMALL
bcc


@<TRIPOS>ATOM
      1 C           46.3980    46.3000    33.0870 c3       221 GNF       0.114700
      2 H29         45.7040    46.2340    32.2760 h1       221 GNF       0.042033
      3 H30         47.3670    46.5520    32.7090 h1       221 GNF       0.042033
      4 H31         46.0740    47.0560    33.7720 h1       221 GNF       0.042033
      5 O           46.4600    45.0710    33.7480 os       221 GNF      -0.328900
      6 C2          47.3180    45.1000    34.7760 ca       221 GNF       0.088100
      7 C31         46.9230    45.8510    35.8540 ca       221 GNF      -0.145000
      8 C30         47.7680    45.9690    36.9410 ca       221 GNF      -0.148500
      9 H27         47.4760    46.5290    37.7580 ha       221 GNF       0.132000
     10 H28         46.0050    46.3220    35.8540 ha       221 GNF       0.142000
     11 C3          48.5580    44.4620    34.7330 ca       221 GNF      -0.145000
     12 H26         48.8430    43.9280    33.8970 ha       221 GNF       0.142000
     13 C4          49.4100    44.5570    35.8390 ca       221 GNF      -0.148500
     14 H25         50.3150    44.0630    35.8440 ha       221 GNF       0.132000
     15 C5          49.0210    45.3330    36.9430 ca       221 GNF       0.102600
     16 N           49.7940    45.3570    38.0570 nh       221 GNF      -0.710600
     17 H24         50.7640    45.2050    37.9880 hn       221 GNF       0.388800
     18 C7          49.1840    45.6100    39.3560 c3       221 GNF       0.168800
     19 H22         48.8000    46.6080    39.3770 h1       221 GNF       0.061700
     20 H23         49.9270    45.4820    40.1160 h1       221 GNF       0.061700
     21 C8          48.0300    44.6190    39.6200 c3       221 GNF       0.042000
     22 H20         47.3460    44.6750    38.7990 h1       221 GNF       0.063700
     23 H21         47.5890    44.9040    40.5510 h1       221 GNF       0.063700
     24 N9          48.4530    43.2270    39.7670 n        221 GNF      -0.552900
     25 H19         49.4110    43.0450    39.9000 hn       221 GNF       0.323500
     26 C10         47.6040    42.1790    39.7300 c        221 GNF       0.617100
     27 O11         46.3900    42.2710    39.5890 o        221 GNF      -0.603100
     28 C12         48.1690    40.8010    39.9400 c3       221 GNF       0.143500
     29 C13         47.8220    39.8690    38.7810 c3       221 GNF      -0.074400
     30 C14         47.4850    38.4230    39.1730 c3       221 GNF      -0.065700
     31 C19         48.7350    37.5460    39.0680 c3       221 GNF      -0.072900
     32 C18         48.3880    36.0900    39.3550 c3       221 GNF      -0.074900
     33 C17         47.2910    35.5640    38.4350 c3       221 GNF      -0.076400
     34 C16         46.7440    36.6550    37.5230 c3       221 GNF      -0.074900
     35 C15         46.3440    37.8930    38.3110 c3       221 GNF      -0.072900
     36 H17         45.5200    37.6450    38.9460 hc       221 GNF       0.039200
     37 H18         46.0800    38.6580    37.6100 hc       221 GNF       0.039200
     38 H15         47.4980    36.9240    36.8130 hc       221 GNF       0.039700
     39 H16         45.8730    36.2750    37.0300 hc       221 GNF       0.039700
     40 H13         47.6930    34.7770    37.8310 hc       221 GNF       0.040200
     41 H14         46.4870    35.2080    39.0450 hc       221 GNF       0.040200
     42 H11         48.0550    36.0090    40.3680 hc       221 GNF       0.039700
     43 H12         49.2670    35.5040    39.1840 hc       221 GNF       0.039700
     44 H9          49.4620    37.8820    39.7790 hc       221 GNF       0.039200
     45 H10         49.1300    37.6200    38.0760 hc       221 GNF       0.039200
     46 H8          47.1560    38.3980    40.1900 hc       221 GNF       0.063700
     47 H6          48.6600    39.8440    38.1150 hc       221 GNF       0.066700
     48 H7          46.9330    40.2680    38.3390 hc       221 GNF       0.066700
     49 H           49.2380    40.8030    39.9870 h1       221 GNF       0.093700
     50 N20         47.5640    40.3550    41.1710 nh       221 GNF      -0.756200
     51 H1          46.7750    39.7680    41.1110 hn       221 GNF       0.439800
     52 C21         48.0070    40.6880    42.3960 cc       221 GNF       0.729500
     53 O29         47.3540    40.2490    43.5040 os       221 GNF      -0.319700
     54 C28         48.1260    40.8110    44.5290 ca       221 GNF       0.022100
     55 C27         47.8850    40.6700    45.8850 ca       221 GNF      -0.103000
     56 H2          47.0790    40.1280    46.2320 ha       221 GNF       0.153000
     57 C26         48.7670    41.2860    46.7580 ca       221 GNF      -0.125000
     58 H3          48.6250    41.2050    47.7770 ha       221 GNF       0.138000
     59 C25         49.8500    42.0180    46.2560 ca       221 GNF      -0.135000
     60 H4          50.5090    42.4590    46.9170 ha       221 GNF       0.136000
     61 C24         50.0620    42.1640    44.8850 ca       221 GNF      -0.088000
     62 H5          50.8530    42.7240    44.5300 ha       221 GNF       0.149000
     63 C23         49.1860    41.5430    44.0090 ca       221 GNF       0.087400
     64 N22         49.0960    41.4590    42.6480 nd       221 GNF      -0.634100
@<TRIPOS>BOND
     1     1     2 1   
     2     1     3 1   
     3     1     4 1   
     4     1     5 1   
     5     5     6 1   
     6     6     7 ar  
     7     6    11 ar  
     8     7     8 ar  
     9     7    10 1   
    10     8     9 1   
    11     8    15 ar  
    12    11    12 1   
    13    11    13 ar  
    14    13    14 1   
    15    13    15 ar  
    16    15    16 1   
    17    16    17 1   
    18    16    18 1   
    19    18    19 1   
    20    18    20 1   
    21    18    21 1   
    22    21    22 1   
    23    21    23 1   
    24    21    24 1   
    25    24    25 1   
    26    24    26 1   
    27    26    27 2   
    28    26    28 1   
    29    28    29 1   
    30    28    49 1   
    31    28    50 1   
    32    29    30 1   
    33    29    47 1   
    34    29    48 1   
    35    30    31 1   
    36    30    35 1   
    37    30    46 1   
    38    31    32 1   
    39    31    44 1   
    40    31    45 1   
    41    32    33 1   
    42    32    42 1   
    43    32    43 1   
    44    33    34 1   
    45    33    40 1   
    46    33    41 1   
    47    34    35 1   
    48    34    38 1   
    49    34    39 1   
    50    35    36 1   
    51    35    37 1   
    52    50    51 1   
    53    50    52 1   
    54    52    53 1   
    55    52    64 2   
    56    53    54 1   
    57    54    55 ar  
    58    54    63 ar  
    59    55    56 1   
    60    55    57 ar  
    61    57    58 1   
    62    57    59 ar  
    63    59    60 1   
    64    59    61 ar  
    65    61    62 1   
    66    61    63 ar  
    67    63    64 1   
@<TRIPOS>SUBSTRUCTURE
     1 GNF         1 TEMP              0 ****  ****    0 ROOT
