@<TRIPOS>MOLECULE
IXV
   58    61     1     0     0
SMALL
bcc


@<TRIPOS>ATOM
      1 C24         40.4240    49.7030    31.4600 ca       331 IXV      -0.096500
      2 C22         40.5560    49.4020    32.8050 ca       331 IXV      -0.184000
      3 H9          40.9500    50.1010    33.4530 ha       331 IXV       0.135000
      4 H8          40.7210    50.6260    31.1060 ha       331 IXV       0.131500
      5 C26         39.8930    48.7650    30.5910 ca       331 IXV      -0.165000
      6 H7          39.7970    48.9870    29.5870 ha       331 IXV       0.133000
      7 C25         39.4910    47.5280    31.0670 ca       331 IXV      -0.096500
      8 H6          39.0930    46.8310    30.4170 ha       331 IXV       0.131500
      9 C23         39.6210    47.2230    32.4120 ca       331 IXV      -0.184000
     10 H5          39.3210    46.3010    32.7660 ha       331 IXV       0.135000
     11 C21         40.1590    48.1640    33.2810 ca       331 IXV       0.129600
     12 N2          40.3090    47.8980    34.6590 nh       331 IXV      -0.717600
     13 H4          40.1160    46.9830    34.9700 hn       331 IXV       0.391800
     14 C20         40.7310    48.8800    35.6630 c3       331 IXV       0.188800
     15 H2          41.3010    49.6480    35.1840 h1       331 IXV       0.072200
     16 H3          41.3250    48.3850    36.4020 h1       331 IXV       0.072200
     17 C19         39.5240    49.5050    36.3410 c3       331 IXV      -0.194400
     18 H           38.9690    48.7340    36.8340 hc       331 IXV       0.079200
     19 H1          38.9390    49.9880    35.5870 hc       331 IXV       0.079200
     20 C18         39.9140    50.5510    37.3640 c        331 IXV       0.661100
     21 O1          41.0720    50.8310    37.5770 o        331 IXV      -0.590100
     22 N1          38.9040    51.1950    38.0380 n        331 IXV      -0.443100
     23 H10         38.0250    51.2400    37.5960 hn       331 IXV       0.333500
     24 C2          39.0180    51.7970    39.3090 cc       331 IXV       0.035500
     25 S           39.6960    53.2380    39.5010 ss       331 IXV       0.162200
     26 C           39.5340    53.3580    41.0920 cc       331 IXV      -0.236100
     27 H16         39.8330    54.1630    41.6630 h4       331 IXV       0.180000
     28 C1          38.9290    52.2090    41.5790 cd       331 IXV       0.011000
     29 C4          38.6410    52.0270    43.0190 ca       331 IXV      -0.020000
     30 C6          38.0440    53.0650    43.7150 ca       331 IXV      -0.110000
     31 C8          37.7660    52.9310    45.0670 ca       331 IXV      -0.131000
     32 C9          38.0790    51.7550    45.7280 ca       331 IXV      -0.124000
     33 C7          38.6760    50.7140    45.0320 ca       331 IXV      -0.131000
     34 C5          38.9600    50.8480    43.6780 ca       331 IXV      -0.110000
     35 H15         39.4070    50.0730    43.1640 ha       331 IXV       0.135500
     36 H14         38.9100    49.8360    45.5220 ha       331 IXV       0.131000
     37 H13         37.8680    51.6540    46.7330 ha       331 IXV       0.131000
     38 H12         37.3260    53.7100    45.5820 ha       331 IXV       0.131000
     39 H11         37.8050    53.9410    43.2260 ha       331 IXV       0.135500
     40 C3          38.6320    51.3020    40.5530 cd       331 IXV      -0.228600
     41 C10         37.9670    49.9970    40.7740 c        331 IXV       0.687700
     42 O           36.8050    49.9470    41.1020 o        331 IXV      -0.579100
     43 N           38.6960    48.8310    40.6040 n        331 IXV      -0.567900
     44 H17         39.6760    48.9050    40.5360 hn       331 IXV       0.308500
     45 C11         38.0950    47.4830    40.5200 c3       331 IXV       0.124300
     46 H18         37.2060    47.4750    41.1160 h1       331 IXV       0.074200
     47 H19         38.8350    46.7940    40.8680 h1       331 IXV       0.074200
     48 C12         37.7290    47.0560    39.1180 ca       331 IXV      -0.120300
     49 C14         38.3030    45.9420    38.5360 ca       331 IXV      -0.128500
     50 H20         38.9950    45.3820    39.0580 ha       331 IXV       0.143500
     51 C16         37.9430    45.5800    37.2450 ca       331 IXV      -0.133500
     52 H21         38.3730    44.7500    36.8080 ha       331 IXV       0.136000
     53 C17         37.0120    46.3240    36.5370 ca       331 IXV      -0.132000
     54 H22         36.7470    46.0450    35.5790 ha       331 IXV       0.134000
     55 C15         36.4380    47.4430    37.1200 ca       331 IXV      -0.133500
     56 H23         35.7460    48.0040    36.5980 ha       331 IXV       0.136000
     57 C13         36.8000    47.8030    38.4090 ca       331 IXV      -0.128500
     58 H24         36.3730    48.6350    38.8450 ha       331 IXV       0.143500
@<TRIPOS>BOND
     1     1     2 ar  
     2     1     4 1   
     3     1     5 ar  
     4     2     3 1   
     5     2    11 ar  
     6     5     6 1   
     7     5     7 ar  
     8     7     8 1   
     9     7     9 ar  
    10     9    10 1   
    11     9    11 ar  
    12    11    12 1   
    13    12    13 1   
    14    12    14 1   
    15    14    15 1   
    16    14    16 1   
    17    14    17 1   
    18    17    18 1   
    19    17    19 1   
    20    17    20 1   
    21    20    21 2   
    22    20    22 1   
    23    22    23 1   
    24    22    24 1   
    25    24    25 1   
    26    24    40 2   
    27    25    26 1   
    28    26    27 1   
    29    26    28 2   
    30    28    29 1   
    31    28    40 1   
    32    29    30 ar  
    33    29    34 ar  
    34    30    31 ar  
    35    30    39 1   
    36    31    32 ar  
    37    31    38 1   
    38    32    33 ar  
    39    32    37 1   
    40    33    34 ar  
    41    33    36 1   
    42    34    35 1   
    43    40    41 1   
    44    41    42 2   
    45    41    43 1   
    46    43    44 1   
    47    43    45 1   
    48    45    46 1   
    49    45    47 1   
    50    45    48 1   
    51    48    49 ar  
    52    48    57 ar  
    53    49    50 1   
    54    49    51 ar  
    55    51    52 1   
    56    51    53 ar  
    57    53    54 1   
    58    53    55 ar  
    59    55    56 1   
    60    55    57 ar  
    61    57    58 1   
@<TRIPOS>SUBSTRUCTURE
     1 IXV         1 TEMP              0 ****  ****    0 ROOT
