@<TRIPOS>MOLECULE
./divided-files/6dpz/LIGAND.pdb
 43 44 0 0 0
SMALL
GASTEIGER

@<TRIPOS>ATOM
      1 O          37.6930   50.6170   48.2240 O.co2 359  H7D359359   -0.5495
      2 C          38.8280   51.0570   48.2450 C.2   359  H7D359359    0.0463
      3 O1         39.4840   51.1730   47.1160 O.co2 359  H7D359359   -0.5495
      4 C1         39.5180   51.4090   49.5350 C.3   359  H7D359359    0.0156
      5 C2         38.4880   51.3520   50.6600 C.3   359  H7D359359   -0.0436
      6 C3         39.1990   51.5670   51.9890 C.3   359  H7D359359   -0.0524
      7 C4         38.7190   52.8110   52.7370 C.3   359  H7D359359   -0.0530
      8 C5         38.4010   54.0280   51.8770 C.3   359  H7D359359   -0.0530
      9 C6         39.5720   54.5510   51.0520 C.3   359  H7D359359   -0.0516
     10 C7         39.4620   54.0110   49.6270 C.3   359  H7D359359   -0.0353
     11 C8         40.3060   52.7450   49.4960 C.3   359  H7D359359    0.0377
     12 N          41.1490   52.9010   48.2910 N.3   359  H7D359359   -0.1761
     13 S          42.6160   52.2720   48.5650 S.O2  359  H7D359359    0.0973
     14 O2         42.8160   51.2480   47.5900 O.2   359  H7D359359   -0.1411
     15 O3         42.6290   51.7220   49.8920 O.2   359  H7D359359   -0.1411
     16 N1         43.8160   53.3490   48.4360 N.3   359  H7D359359   -0.1666
     17 C12        44.1730   53.9710   49.7180 C.3   359  H7D359359    0.0216
     18 C11        44.9940   55.1850   49.3050 C.3   359  H7D359359   -0.0373
     19 C10        44.4860   55.5670   47.9210 C.3   359  H7D359359   -0.0373
     20 C9         43.5360   54.4510   47.5040 C.3   359  H7D359359    0.0216
     21 H          40.2856   50.6852   49.7134 H     359  H7D359359    0.0376
     22 H          38.0080   50.3957   50.6597 H     359  H7D359359    0.0272
     23 H          37.7501   52.1133   50.5156 H     359  H7D359359    0.0272
     24 H          40.2476   51.6672   51.8009 H     359  H7D359359    0.0265
     25 H          38.9793   50.7213   52.6066 H     359  H7D359359    0.0265
     26 H          37.8310   52.5481   53.2729 H     359  H7D359359    0.0265
     27 H          39.5369   53.1052   53.3609 H     359  H7D359359    0.0265
     28 H          37.6118   53.7635   51.2046 H     359  H7D359359    0.0265
     29 H          38.1339   54.8133   52.5529 H     359  H7D359359    0.0265
     30 H          39.5469   55.6205   51.0326 H     359  H7D359359    0.0266
     31 H          40.4934   54.2275   51.4894 H     359  H7D359359    0.0266
     32 H          38.4395   53.7821   49.4102 H     359  H7D359359    0.0281
     33 H          39.8161   54.7487   48.9376 H     359  H7D359359    0.0281
     34 H          40.9155   52.6538   50.3707 H     359  H7D359359    0.0484
     35 H          40.7130   52.4153   47.5071 H     359  H7D359359    0.1494
     36 H          44.7535   53.3028   50.3192 H     359  H7D359359    0.0444
     37 H          43.3193   54.2261   50.3105 H     359  H7D359359    0.0444
     38 H          44.8441   55.9899   49.9939 H     359  H7D359359    0.0278
     39 H          46.0426   54.9720   49.2985 H     359  H7D359359    0.0278
     40 H          43.9678   56.5023   47.9595 H     359  H7D359359    0.0278
     41 H          45.2900   55.6803   47.2241 H     359  H7D359359    0.0278
     42 H          43.7287   54.1495   46.4956 H     359  H7D359359    0.0444
     43 H          42.5119   54.7589   47.5399 H     359  H7D359359    0.0444
@<TRIPOS>UNITY_ATOM_ATTR
1 1
charge -1
@<TRIPOS>BOND
     1     3     2   ar
     2    20    19    1
     3    20    16    1
     4    14    13    2
     5    19    18    1
     6     1     2   ar
     7     2     4    1
     8    12    13    1
     9    12    11    1
    10    16    13    1
    11    16    17    1
    12    13    15    2
    13    18    17    1
    14    11     4    1
    15    11    10    1
    16     4     5    1
    17    10     9    1
    18     5     6    1
    19     9     8    1
    20     8     7    1
    21     6     7    1
    22     4    21    1
    23     5    22    1
    24     5    23    1
    25     6    24    1
    26     6    25    1
    27     7    26    1
    28     7    27    1
    29     8    28    1
    30     8    29    1
    31     9    30    1
    32     9    31    1
    33    10    32    1
    34    10    33    1
    35    11    34    1
    36    12    35    1
    37    17    36    1
    38    17    37    1
    39    18    38    1
    40    18    39    1
    41    19    40    1
    42    19    41    1
    43    20    42    1
    44    20    43    1
