@<TRIPOS>MOLECULE
./divided-files/6dpz/LIGAND.pdb
 20 21 0 0 0
SMALL
GASTEIGER

@<TRIPOS>ATOM
      1  O         37.6930   50.6170   48.2240 O.co2 359  H7D359     -0.2456
      2  C         38.8280   51.0570   48.2450 C.2   359  H7D359      0.3657
      3  O1        39.4840   51.1730   47.1160 O.co2 359  H7D359     -0.2456
      4  C1        39.5180   51.4090   49.5350 C.3   359  H7D359      0.1212
      5  C2        38.4880   51.3520   50.6600 C.3   359  H7D359      0.0127
      6  C3        39.1990   51.5670   51.9890 C.3   359  H7D359      0.0006
      7  C4        38.7190   52.8110   52.7370 C.3   359  H7D359      0.0000
      8  C5        38.4010   54.0280   51.8770 C.3   359  H7D359      0.0000
      9  C6        39.5720   54.5510   51.0520 C.3   359  H7D359      0.0015
     10  C7        39.4620   54.0110   49.6270 C.3   359  H7D359      0.0199
     11  C8        40.3060   52.7450   49.4960 C.3   359  H7D359      0.1094
     12  N         41.1490   52.9010   48.2910 N.3   359  H7D359     -0.0675
     13  S         42.6160   52.2720   48.5650 S.O2  359  H7D359      0.1157
     14  O2        42.8160   51.2480   47.5900 O.2   359  H7D359     -0.1397
     15  O3        42.6290   51.7220   49.8920 O.2   359  H7D359     -0.1397
     16  N1        43.8160   53.3490   48.4360 N.3   359  H7D359     -0.1442
     17  C12       44.1730   53.9710   49.7180 C.3   359  H7D359      0.0970
     18  C11       44.9940   55.1850   49.3050 C.3   359  H7D359      0.0207
     19  C10       44.4860   55.5670   47.9210 C.3   359  H7D359      0.0207
     20  C9        43.5360   54.4510   47.5040 C.3   359  H7D359      0.0970
@<TRIPOS>BOND
     1     3     2   ar
     2    20    19    1
     3    20    16    1
     4    14    13    2
     5    19    18    1
     6     1     2   ar
     7     2     4    1
     8    12    13    1
     9    12    11    1
    10    16    13    1
    11    16    17    1
    12    13    15    2
    13    18    17    1
    14    11     4    1
    15    11    10    1
    16     4     5    1
    17    10     9    1
    18     5     6    1
    19     9     8    1
    20     8     7    1
    21     6     7    1
