@<TRIPOS>MOLECULE
23C
   42    45     1     0     0
SMALL
bcc


@<TRIPOS>ATOM
      1 CD2         46.2530    53.1110    54.0040 ca       359 23C      -0.040000
      2 CAN         44.8940    53.2630    53.7450 ca       359 23C      -0.091000
      3 H           44.4280    52.6260    53.0810 ha       359 23C       0.220000
      4 CAH         44.1640    54.2530    54.3630 ca       359 23C      -0.163000
      5 H1          43.1590    54.3550    54.1520 ha       359 23C       0.125000
      6 CAG         44.7640    55.1140    55.2660 ca       359 23C      -0.131000
      7 H2          44.2100    55.8540    55.7260 ha       359 23C       0.105000
      8 CAL         46.1180    54.9760    55.5510 ca       359 23C      -0.152000
      9 H3          46.5730    55.6110    56.2260 ha       359 23C       0.107000
     10 CAX         46.8550    53.9770    54.9200 ca       359 23C      -0.033000
     11 CAM         48.2030    53.8520    55.2180 ca       359 23C      -0.158000
     12 H4          48.6510    54.4860    55.8970 ha       359 23C       0.108000
     13 CAI         48.9370    52.8590    54.5900 ca       359 23C      -0.118000
     14 H5          49.9420    52.7550    54.8050 ha       359 23C       0.112000
     15 CD1         48.3410    52.0060    53.6800 ca       359 23C      -0.156000
     16 H6          48.9120    51.2830    53.2160 ha       359 23C       0.136000
     17 CG          46.9950    52.1030    53.3790 ca       359 23C      -0.014300
     18 CB          46.4470    51.1080    52.3420 c3       359 23C      -0.064100
     19 H7          45.5010    50.7270    52.6660 hc       359 23C       0.078200
     20 H8          47.1190    50.2840    52.2230 hc       359 23C       0.078200
     21 CA          46.2780    51.8680    50.9990 c3       359 23C      -0.015300
     22 C           45.6340    51.0090    49.8730 c        359 23C       0.914600
     23 OXT         44.3790    50.9570    49.8830 o        359 23C      -0.829300
     24 O           46.3720    50.4660    49.0380 o        359 23C      -0.829300
     25 H9          45.5540    52.6400    51.1580 h1       359 23C       0.072700
     26 N           47.5340    52.5550    50.6120 n        359 23C      -0.480400
     27 CAW         47.5910    53.8770    50.4210 c        359 23C       0.730100
     28 OAD         46.6240    54.6340    50.4950 o        359 23C      -0.610500
     29 CBA         48.8950    54.2580    50.1060 ca       359 23C      -0.164600
     30 CAP         49.4930    55.4840    49.8060 ca       359 23C      -0.040000
     31 H10         48.9290    56.3490    49.7970 ha       359 23C       0.168000
     32 CAT         50.8560    55.5360    49.5170 ca       359 23C      -0.124600
     33 CAR         51.5550    56.8400    49.1640 c        359 23C       0.906200
     34 OAE         50.9030    57.7200    48.5640 o        359 23C      -0.835300
     35 OAA         52.7690    56.9310    49.4470 o        359 23C      -0.835300
     36 CAK         51.6020    54.3630    49.5290 ca       359 23C      -0.115000
     37 H11         52.6100    54.3940    49.3110 ha       359 23C       0.149000
     38 CAO         51.0000    53.1560    49.8300 ca       359 23C      -0.099000
     39 H12         51.5670    52.2930    49.8380 ha       359 23C       0.126000
     40 CAZ         49.6420    53.0860    50.1200 ca       359 23C      -0.155600
     41 CAV         48.7670    52.0470    50.4490 c        359 23C       0.740100
     42 OAC         49.0720    50.8520    50.5590 o        359 23C      -0.621500
@<TRIPOS>BOND
     1     1     2 ar  
     2     1    10 ar  
     3     1    17 ar  
     4     2     3 1   
     5     2     4 ar  
     6     4     5 1   
     7     4     6 ar  
     8     6     7 1   
     9     6     8 ar  
    10     8     9 1   
    11     8    10 ar  
    12    10    11 ar  
    13    11    12 1   
    14    11    13 ar  
    15    13    14 1   
    16    13    15 ar  
    17    15    16 1   
    18    15    17 ar  
    19    17    18 1   
    20    18    19 1   
    21    18    20 1   
    22    18    21 1   
    23    21    22 1   
    24    21    25 1   
    25    21    26 1   
    26    22    23 1   
    27    22    24 1   
    28    26    27 1   
    29    26    41 1   
    30    27    28 2   
    31    27    29 1   
    32    29    30 ar  
    33    29    40 ar  
    34    30    31 1   
    35    30    32 ar  
    36    32    33 1   
    37    32    36 ar  
    38    33    34 1   
    39    33    35 1   
    40    36    37 1   
    41    36    38 ar  
    42    38    39 1   
    43    38    40 ar  
    44    40    41 1   
    45    41    42 2   
@<TRIPOS>SUBSTRUCTURE
     1 23C         1 TEMP              0 ****  ****    0 ROOT
