@<TRIPOS>MOLECULE
FAC
   13    12     1     0     0
SMALL
bcc


@<TRIPOS>ATOM
      1 F1          30.2530    36.3330    49.6720 f        257 FAC      -0.216300
      2 C1          31.4310    37.0070    49.9230 c3       257 FAC       0.574900
      3 F2          31.4380    37.5150    51.1980 f        257 FAC      -0.216300
      4 F3          32.4640    36.1420    49.7600 f        257 FAC      -0.216300
      5 C           31.6260    38.1570    48.9560 c3       257 FAC       0.295600
      6 O1          32.7140    38.9690    49.3950 oh       257 FAC      -0.518300
      7 H           32.6850    39.3730    50.2390 ho       257 FAC       0.444500
      8 O2          31.9440    37.6840    47.6570 oh       257 FAC      -0.518300
      9 H1          31.3430    37.1290    47.1990 ho       257 FAC       0.444500
     10 C2          30.4150    39.0310    48.7900 c3       257 FAC       0.574900
     11 F5          30.8610    40.0040    48.0070 f        257 FAC      -0.216300
     12 F6          30.0170    39.5800    49.9750 f        257 FAC      -0.216300
     13 F4          29.3640    38.3710    48.1740 f        257 FAC      -0.216300
@<TRIPOS>BOND
     1     1     2 1   
     2     2     3 1   
     3     2     4 1   
     4     2     5 1   
     5     5     6 1   
     6     5     8 1   
     7     5    10 1   
     8     6     7 1   
     9     8     9 1   
    10    10    11 1   
    11    10    12 1   
    12    10    13 1   
@<TRIPOS>SUBSTRUCTURE
     1 FAC         1 TEMP              0 ****  ****    0 ROOT
