@<TRIPOS>MOLECULE
./divided-files/3b5r/LIGAND.pdb
 41 42 0 0 0
SMALL
GASTEIGER

@<TRIPOS>ATOM
      1 C21        47.3180   36.3010   47.3890 C.ar  248  B5R248248    0.0167
      2 C20        46.3540   35.6500   46.6260 C.ar  248  B5R248248    0.1451
      3 F20        46.7010   34.4830   46.0430 F     248  B5R248248   -0.2038
      4 C19        45.0870   36.2150   46.4850 C.ar  248  B5R248248    0.0763
      5 Cl19       43.8540   35.4920   45.5080 Cl    248  B5R248248   -0.0806
      6 C18        44.7950   37.4190   47.1200 C.ar  248  B5R248248   -0.0371
      7 C17        45.7570   38.0720   47.8830 C.ar  248  B5R248248   -0.0184
      8 C16        47.0260   37.5140   48.0070 C.ar  248  B5R248248    0.1235
      9 O14        48.0340   38.2380   48.5590 O.3   248  B5R248248   -0.4885
     10 C13        48.2640   37.9690   49.9490 C.3   248  B5R248248    0.1265
     11 C11        49.5190   38.7410   50.3250 C.3   248  B5R248248    0.1726
     12 O11        49.5040   38.9780   51.7350 O.3   248  B5R248248   -0.3764
     13 C12        50.7620   37.9410   49.9310 C.3   248  B5R248248   -0.0242
     14 C10        49.4920   40.0790   49.5830 C.2   248  B5R248248    0.2520
     15 O10        50.0290   40.1950   48.4820 O.2   248  B5R248248   -0.2722
     16 N9         48.8160   41.0410   50.2090 N.am  248  B5R248248   -0.2830
     17 C6         48.6270   42.2830   49.7680 C.ar  248  B5R248248    0.0341
     18 C5         49.0410   42.7310   48.5150 C.ar  248  B5R248248   -0.0276
     19 C4         48.7360   44.0100   48.0420 C.ar  248  B5R248248    0.0739
     20 C7         49.1540   44.4190   46.6160 C.3   248  B5R248248    0.4187
     21 F2         49.5670   45.6810   46.5260 F     248  B5R248248   -0.1659
     22 F1         50.1640   43.6920   46.1500 F     248  B5R248248   -0.1659
     23 F3         48.1340   44.2670   45.7780 F     248  B5R248248   -0.1659
     24 C3         47.9940   44.8470   48.8800 C.ar  248  B5R248248    0.0635
     25 C8         47.6160   46.1780   48.5140 C.1   248  B5R248248    0.0997
     26 N8         47.3140   47.2400   48.2380 N.1   248  B5R248248   -0.1909
     27 C2         47.5800   44.4140   50.1360 C.ar  248  B5R248248   -0.0421
     28 C1         47.8930   43.1360   50.5840 C.ar  248  B5R248248   -0.0392
     29 H          48.2550   35.8824   47.4976 H     248  B5R248248    0.0683
     30 H          43.8540   37.8316   47.0234 H     248  B5R248248    0.0634
     31 H          45.5319   38.9626   48.3532 H     248  B5R248248    0.0654
     32 H          48.4119   36.9208   50.1050 H     248  B5R248248    0.0731
     33 H          47.4284   38.2649   50.5483 H     248  B5R248248    0.0731
     34 H          50.3003   39.4704   51.9886 H     248  B5R248248    0.2109
     35 H          50.7577   37.7726   48.8743 H     248  B5R248248    0.0263
     36 H          50.7579   37.0009   50.4420 H     248  B5R248248    0.0263
     37 H          51.6399   38.4899   50.2011 H     248  B5R248248    0.0263
     38 H          48.4185   40.8120   51.0801 H     248  B5R248248    0.1549
     39 H          49.5917   42.0964   47.9159 H     248  B5R248248    0.0642
     40 H          47.0351   45.0481   50.7409 H     248  B5R248248    0.0631
     41 H          47.5823   42.8223   51.5168 H     248  B5R248248    0.0636
@<TRIPOS>BOND
     1     5     4    1
     2    23    20    1
     3     3     2    1
     4    22    20    1
     5     4     2   ar
     6     4     6   ar
     7    21    20    1
     8    20    19    1
     9     2     1   ar
    10     6     7   ar
    11     1     8   ar
    12     7     8   ar
    13     8     9    1
    14    19    18   ar
    15    19    24   ar
    16    26    25    3
    17    15    14    2
    18    25    24    1
    19    18    17   ar
    20     9    10    1
    21    24    27   ar
    22    14    16   am
    23    14    11    1
    24    17    16    1
    25    17    28   ar
    26    13    11    1
    27    10    11    1
    28    27    28   ar
    29    11    12    1
    30     1    29    1
    31     6    30    1
    32     7    31    1
    33    10    32    1
    34    10    33    1
    35    12    34    1
    36    13    35    1
    37    13    36    1
    38    13    37    1
    39    16    38    1
    40    18    39    1
    41    27    40    1
    42    28    41    1
