@<TRIPOS>MOLECULE
./divided-files/3b5r/LIGAND.pdb
 28 29 0 0 0
SMALL
GASTEIGER

@<TRIPOS>ATOM
      1  C21       47.3180   36.3010   47.3890 C.ar  248  B5R248      0.0674
      2  C20       46.3540   35.6500   46.6260 C.ar  248  B5R248      0.1536
      3  F20       46.7010   34.4830   46.0430 F     248  B5R248     -0.2032
      4  C19       45.0870   36.2150   46.4850 C.ar  248  B5R248      0.0852
      5 Cl19       43.8540   35.4920   45.5080 Cl    248  B5R248     -0.0799
      6  C18       44.7950   37.4190   47.1200 C.ar  248  B5R248      0.0168
      7  C17       45.7570   38.0720   47.8830 C.ar  248  B5R248      0.0379
      8  C16       47.0260   37.5140   48.0070 C.ar  248  B5R248      0.1410
      9  O14       48.0340   38.2380   48.5590 O.3   248  B5R248     -0.4722
     10  C13       48.2640   37.9690   49.9490 C.3   248  B5R248      0.2444
     11  C11       49.5190   38.7410   50.3250 C.3   248  B5R248      0.2359
     12  O11       49.5040   38.9780   51.7350 O.3   248  B5R248     -0.2124
     13  C12       50.7620   37.9410   49.9310 C.3   248  B5R248      0.0465
     14  C10       49.4920   40.0790   49.5830 C.2   248  B5R248      0.2768
     15  O10       50.0290   40.1950   48.4820 O.2   248  B5R248     -0.2702
     16  N9        48.8160   41.0410   50.2090 N.am  248  B5R248     -0.1771
     17  C6        48.6270   42.2830   49.7680 C.ar  248  B5R248      0.0734
     18  C5        49.0410   42.7310   48.5150 C.ar  248  B5R248      0.0211
     19  C4        48.7360   44.0100   48.0420 C.ar  248  B5R248      0.0823
     20  C7        49.1540   44.4190   46.6160 C.3   248  B5R248      0.4192
     21  F2        49.5670   45.6810   46.5260 F     248  B5R248     -0.1658
     22  F1        50.1640   43.6920   46.1500 F     248  B5R248     -0.1658
     23  F3        48.1340   44.2670   45.7780 F     248  B5R248     -0.1658
     24  C3        47.9940   44.8470   48.8800 C.ar  248  B5R248      0.0724
     25  C8        47.6160   46.1780   48.5140 C.1   248  B5R248      0.1004
     26  N8        47.3140   47.2400   48.2380 N.1   248  B5R248     -0.1908
     27  C2        47.5800   44.4140   50.1360 C.ar  248  B5R248      0.0116
     28  C1        47.8930   43.1360   50.5840 C.ar  248  B5R248      0.0173
@<TRIPOS>BOND
     1     5     4    1
     2    23    20    1
     3     3     2    1
     4    22    20    1
     5     4     2   ar
     6     4     6   ar
     7    21    20    1
     8    20    19    1
     9     2     1   ar
    10     6     7   ar
    11     1     8   ar
    12     7     8   ar
    13     8     9    1
    14    19    18   ar
    15    19    24   ar
    16    26    25    3
    17    15    14    2
    18    25    24    1
    19    18    17   ar
    20     9    10    1
    21    24    27   ar
    22    14    16   am
    23    14    11    1
    24    17    16    1
    25    17    28   ar
    26    13    11    1
    27    10    11    1
    28    27    28   ar
    29    11    12    1
