@<TRIPOS>MOLECULE
VIB
   36    37     1     0     0
SMALL
bcc


@<TRIPOS>ATOM
      1 N4A         54.5880    35.7350    34.1430 nh       177 VIB      -0.937500
      2 H3          55.3190    35.8090    34.7990 hn       177 VIB       0.429300
      3 H4          53.6890    35.4610    34.4370 hn       177 VIB       0.429300
      4 C4A         54.8180    36.0100    32.8420 ca       177 VIB       0.704200
      5 N3A         56.0540    36.3550    32.4890 nb       177 VIB      -0.770000
      6 C2A         56.3930    36.5590    31.1890 ca       177 VIB       0.690300
      7 CM2         57.8120    36.9480    30.8820 c3       177 VIB      -0.137400
      8 H           58.3860    36.9440    31.7860 hc       177 VIB       0.063033
      9 H1          57.8280    37.9290    30.4540 hc       177 VIB       0.063033
     10 H2          58.2310    36.2500    30.1900 hc       177 VIB       0.063033
     11 N1A         55.4740    36.4920    30.2120 nb       177 VIB      -0.740000
     12 C6A         54.2020    36.1650    30.5170 ca       177 VIB       0.467200
     13 H17         53.4950    36.0890    29.7690 h4       177 VIB       0.023100
     14 C5A         53.8380    35.9290    31.8500 ca       177 VIB      -0.407900
     15 C7A         52.4340    35.5490    32.1910 c3       177 VIB       0.237100
     16 H15         52.4620    34.6330    32.7440 h1       177 VIB       0.052200
     17 H16         51.9100    35.4630    31.2620 h1       177 VIB       0.052200
     18 N3          51.7050    36.5450    32.9900 nh       177 VIB      -0.614400
     19 C4          50.4470    36.3110    33.4600 c2       177 VIB       0.022800
     20 CM4         49.6420    35.0620    33.3030 c3       177 VIB      -0.039900
     21 H5          50.1820    34.3640    32.6970 hc       177 VIB       0.053033
     22 H6          48.7090    35.2960    32.8330 hc       177 VIB       0.053033
     23 H7          49.4600    34.6330    34.2650 hc       177 VIB       0.053033
     24 C2          52.1620    37.7520    33.3470 c3       177 VIB       0.244900
     25 H13         53.0660    37.6090    33.9000 h2       177 VIB       0.074200
     26 H14         52.2880    38.2930    32.4330 h2       177 VIB       0.074200
     27 S1          51.0910    38.7160    34.3180 ss       177 VIB      -0.257700
     28 C5          49.9550    37.4200    34.2320 c2       177 VIB      -0.060600
     29 C6          48.6340    37.5630    34.9380 c3       177 VIB      -0.014200
     30 H11         48.7970    37.8950    35.9420 hc       177 VIB       0.067200
     31 H12         48.1300    36.6200    34.9590 hc       177 VIB       0.067200
     32 C7          47.7910    38.5770    34.2000 c3       177 VIB       0.128400
     33 H9          48.1800    38.7510    33.2190 h1       177 VIB       0.033700
     34 H10         47.7750    39.5290    34.6890 h1       177 VIB       0.033700
     35 O1          46.5040    37.9790    34.1330 oh       177 VIB      -0.602800
     36 H8          45.8950    38.5740    33.6670 ho       177 VIB       0.403000
@<TRIPOS>BOND
     1     1     2 1   
     2     1     3 1   
     3     1     4 1   
     4     4     5 ar  
     5     4    14 ar  
     6     5     6 ar  
     7     6     7 1   
     8     6    11 ar  
     9     7     8 1   
    10     7     9 1   
    11     7    10 1   
    12    11    12 ar  
    13    12    13 1   
    14    12    14 ar  
    15    14    15 1   
    16    15    16 1   
    17    15    17 1   
    18    15    18 1   
    19    18    19 1   
    20    18    24 1   
    21    19    20 1   
    22    19    28 2   
    23    20    21 1   
    24    20    22 1   
    25    20    23 1   
    26    24    25 1   
    27    24    26 1   
    28    24    27 1   
    29    27    28 1   
    30    28    29 1   
    31    29    30 1   
    32    29    31 1   
    33    29    32 1   
    34    32    33 1   
    35    32    34 1   
    36    32    35 1   
    37    35    36 1   
@<TRIPOS>SUBSTRUCTURE
     1 VIB         1 TEMP              0 ****  ****    0 ROOT
