@<TRIPOS>MOLECULE
./divided-files/2f1g/LIGAND.pdb
 64 67 0 0 0
SMALL
GASTEIGER

@<TRIPOS>ATOM
      1 C          46.3980   46.3000   33.0870 C.3   221  GNF221221    0.0788
      2 O          46.4600   45.0710   33.7480 O.3   221  GNF221221   -0.4951
      3 C2         47.3180   45.1000   34.7760 C.ar  221  GNF221221    0.1202
      4 C31        46.9230   45.8510   35.8540 C.ar  221  GNF221221   -0.0182
      5 C30        47.7680   45.9690   36.9410 C.ar  221  GNF221221   -0.0374
      6 C3         48.5580   44.4620   34.7330 C.ar  221  GNF221221   -0.0182
      7 C4         49.4100   44.5570   35.8390 C.ar  221  GNF221221   -0.0374
      8 C5         49.0210   45.3330   36.9430 C.ar  221  GNF221221    0.0274
      9 N          49.7940   45.3570   38.0570 N.pl3 221  GNF221221   -0.3423
     10 C7         49.1840   45.6100   39.3560 C.3   221  GNF221221    0.0247
     11 C8         48.0300   44.6190   39.6200 C.3   221  GNF221221    0.0271
     12 N9         48.4530   43.2270   39.7670 N.am  221  GNF221221   -0.3123
     13 C10        47.6040   42.1790   39.7300 C.2   221  GNF221221    0.2335
     14 O11        46.3900   42.2710   39.5890 O.2   221  GNF221221   -0.2738
     15 C12        48.1690   40.8010   39.9400 C.3   221  GNF221221    0.1012
     16 C13        47.8220   39.8690   38.7810 C.3   221  GNF221221   -0.0231
     17 C14        47.4850   38.4230   39.1730 C.3   221  GNF221221   -0.0389
     18 C19        48.7350   37.5460   39.0680 C.3   221  GNF221221   -0.0501
     19 C18        48.3880   36.0900   39.3550 C.3   221  GNF221221   -0.0528
     20 C17        47.2910   35.5640   38.4350 C.3   221  GNF221221   -0.0530
     21 C16        46.7440   36.6550   37.5230 C.3   221  GNF221221   -0.0528
     22 C15        46.3440   37.8930   38.3110 C.3   221  GNF221221   -0.0501
     23 N20        47.5640   40.3550   41.1710 N.pl3 221  GNF221221   -0.2875
     24 C21        48.0070   40.6880   42.3960 C.ar  221  GNF221221    0.2891
     25 O29        47.3540   40.2490   43.5040 O.2   221  GNF221221   -0.4245
     26 C28        48.1260   40.8110   44.5290 C.ar  221  GNF221221    0.1570
     27 C27        47.8850   40.6700   45.8850 C.ar  221  GNF221221   -0.0171
     28 C26        48.7670   41.2860   46.7580 C.ar  221  GNF221221   -0.0582
     29 C25        49.8500   42.0180   46.2560 C.ar  221  GNF221221   -0.0595
     30 C24        50.0620   42.1640   44.8850 C.ar  221  GNF221221   -0.0325
     31 C23        49.1860   41.5430   44.0090 C.ar  221  GNF221221    0.1112
     32 N22        49.0960   41.4590   42.6480 N.ar  221  GNF221221   -0.1955
     33 H          45.7037   46.2339   32.2755 H     221  GNF221221    0.0660
     34 H          47.3668   46.5504   32.7080 H     221  GNF221221    0.0660
     35 H          46.0760   47.0571   33.7711 H     221  GNF221221    0.0660
     36 H          46.0050   46.3226   35.8531 H     221  GNF221221    0.0655
     37 H          47.4766   46.5286   37.7577 H     221  GNF221221    0.0637
     38 H          48.8428   43.9276   33.8974 H     221  GNF221221    0.0655
     39 H          50.3153   44.0617   35.8434 H     221  GNF221221    0.0637
     40 H          50.7641   45.2040   37.9883 H     221  GNF221221    0.1461
     41 H          48.8005   46.6087   39.3753 H     221  GNF221221    0.0476
     42 H          49.9270   45.4826   40.1153 H     221  GNF221221    0.0476
     43 H          47.3452   44.6762   38.7998 H     221  GNF221221    0.0477
     44 H          47.5883   44.9047   40.5518 H     221  GNF221221    0.0477
     45 H          49.4111   43.0442   39.9005 H     221  GNF221221    0.1488
     46 H          49.2380   40.8045   39.9871 H     221  GNF221221    0.0595
     47 H          46.9749   40.2782   38.2713 H     221  GNF221221    0.0290
     48 H          48.7031   39.8116   38.1766 H     221  GNF221221    0.0290
     49 H          47.1554   38.3988   40.1907 H     221  GNF221221    0.0301
     50 H          49.4619   37.8817   39.7778 H     221  GNF221221    0.0268
     51 H          49.1286   37.6200   38.0758 H     221  GNF221221    0.0268
     52 H          49.2661   35.4938   39.2192 H     221  GNF221221    0.0265
     53 H          48.0276   36.0316   40.3608 H     221  GNF221221    0.0265
     54 H          47.6933   34.7776   37.8311 H     221  GNF221221    0.0265
     55 H          46.4877   35.2083   39.0458 H     221  GNF221221    0.0265
     56 H          47.4973   36.9238   36.8122 H     221  GNF221221    0.0265
     57 H          45.8733   36.2751   37.0306 H     221  GNF221221    0.0265
     58 H          45.5192   37.6453   38.9460 H     221  GNF221221    0.0268
     59 H          46.0809   38.6571   37.6096 H     221  GNF221221    0.0268
     60 H          46.7755   39.7687   41.1103 H     221  GNF221221    0.1512
     61 H          47.0792   40.1268   46.2322 H     221  GNF221221    0.0655
     62 H          48.6260   41.2054   47.7771 H     221  GNF221221    0.0619
     63 H          50.5077   42.4605   46.9168 H     221  GNF221221    0.0618
     64 H          50.8542   42.7225   44.5307 H     221  GNF221221    0.0640
@<TRIPOS>BOND
     1     1     2    1
     2     2     3    1
     3     6     3   ar
     4     6     7   ar
     5     3     4   ar
     6     7     8   ar
     7     4     5   ar
     8     5     8   ar
     9     8     9    1
    10    21    22    1
    11    21    20    1
    12     9    10    1
    13    22    17    1
    14    20    19    1
    15    16    17    1
    16    16    15    1
    17    18    17    1
    18    18    19    1
    19    10    11    1
    20    14    13    2
    21    11    12    1
    22    13    12   am
    23    13    15    1
    24    15    23    1
    25    23    24    1
    26    24    32   ar
    27    24    25   ar
    28    32    31   ar
    29    25    26   ar
    30    31    26   ar
    31    31    30   ar
    32    26    27   ar
    33    30    29   ar
    34    27    28   ar
    35    29    28   ar
    36     1    33    1
    37     1    34    1
    38     1    35    1
    39     4    36    1
    40     5    37    1
    41     6    38    1
    42     7    39    1
    43     9    40    1
    44    10    41    1
    45    10    42    1
    46    11    43    1
    47    11    44    1
    48    12    45    1
    49    15    46    1
    50    16    47    1
    51    16    48    1
    52    17    49    1
    53    18    50    1
    54    18    51    1
    55    19    52    1
    56    19    53    1
    57    20    54    1
    58    20    55    1
    59    21    56    1
    60    21    57    1
    61    22    58    1
    62    22    59    1
    63    23    60    1
    64    27    61    1
    65    28    62    1
    66    29    63    1
    67    30    64    1
