@<TRIPOS>MOLECULE
./divided-files/2f1g/LIGAND.pdb
 32 35 0 0 0
SMALL
GASTEIGER

@<TRIPOS>ATOM
      1  C         46.3980   46.3000   33.0870 C.3   221  GNF221      0.2525
      2  O         46.4600   45.0710   33.7480 O.3   221  GNF221     -0.4714
      3  C2        47.3180   45.1000   34.7760 C.ar  221  GNF221      0.1388
      4  C31       46.9230   45.8510   35.8540 C.ar  221  GNF221      0.0382
      5  C30       47.7680   45.9690   36.9410 C.ar  221  GNF221      0.0192
      6  C3        48.5580   44.4620   34.7330 C.ar  221  GNF221      0.0382
      7  C4        49.4100   44.5570   35.8390 C.ar  221  GNF221      0.0192
      8  C5        49.0210   45.3330   36.9430 C.ar  221  GNF221      0.0656
      9  N         49.7940   45.3570   38.0570 N.pl3 221  GNF221     -0.2357
     10  C7        49.1840   45.6100   39.3560 C.3   221  GNF221      0.1356
     11  C8        48.0300   44.6190   39.6200 C.3   221  GNF221      0.1385
     12  N9        48.4530   43.2270   39.7670 N.am  221  GNF221     -0.2021
     13  C10       47.6040   42.1790   39.7300 C.2   221  GNF221      0.2613
     14  O11       46.3900   42.2710   39.5890 O.2   221  GNF221     -0.2715
     15  C12       48.1690   40.8010   39.9400 C.3   221  GNF221      0.1744
     16  C13       47.8220   39.8690   38.7810 C.3   221  GNF221      0.0312
     17  C14       47.4850   38.4230   39.1730 C.3   221  GNF221      0.0022
     18  C19       48.7350   37.5460   39.0680 C.3   221  GNF221      0.0001
     19  C18       48.3880   36.0900   39.3550 C.3   221  GNF221      0.0000
     20  C17       47.2910   35.5640   38.4350 C.3   221  GNF221      0.0000
     21  C16       46.7440   36.6550   37.5230 C.3   221  GNF221      0.0000
     22  C15       46.3440   37.8930   38.3110 C.3   221  GNF221      0.0001
     23  N20       47.5640   40.3550   41.1710 N.pl3 221  GNF221     -0.1803
     24  C21       48.0070   40.6880   42.3960 C.ar  221  GNF221      0.3094
     25  O29       47.3540   40.2490   43.5040 O.2   221  GNF221     -0.4227
     26  C28       48.1260   40.8110   44.5290 C.ar  221  GNF221      0.1661
     27  C27       47.8850   40.6700   45.8850 C.ar  221  GNF221      0.0392
     28  C26       48.7670   41.2860   46.7580 C.ar  221  GNF221      0.0032
     29  C25       49.8500   42.0180   46.2560 C.ar  221  GNF221      0.0018
     30  C24       50.0620   42.1640   44.8850 C.ar  221  GNF221      0.0224
     31  C23       49.1860   41.5430   44.0090 C.ar  221  GNF221      0.1202
     32  N22       49.0960   41.4590   42.6480 N.ar  221  GNF221     -0.1934
@<TRIPOS>BOND
     1     1     2    1
     2     2     3    1
     3     6     3   ar
     4     6     7   ar
     5     3     4   ar
     6     7     8   ar
     7     4     5   ar
     8     5     8   ar
     9     8     9    1
    10    21    22    1
    11    21    20    1
    12     9    10    1
    13    22    17    1
    14    20    19    1
    15    16    17    1
    16    16    15    1
    17    18    17    1
    18    18    19    1
    19    10    11    1
    20    14    13    2
    21    11    12    1
    22    13    12   am
    23    13    15    1
    24    15    23    1
    25    23    24    1
    26    24    32   ar
    27    24    25   ar
    28    32    31   ar
    29    25    26   ar
    30    31    26   ar
    31    31    30   ar
    32    26    27   ar
    33    30    29   ar
    34    27    28   ar
    35    29    28   ar
