@<TRIPOS>MOLECULE
LIG
   17    17     1     0     0
SMALL
bcc


@<TRIPOS>ATOM
      1 O7          48.8900    51.7260    39.4520 o        298 LIG      -0.826800
      2 C6          48.6340    50.5150    39.9830 c        298 LIG       0.940200
      3 O14         47.9770    50.3850    40.9890 o        298 LIG      -0.826800
      4 C4          49.1850    49.4400    39.2780 cc       298 LIG      -0.171700
      5 S3          50.0920    49.6700    37.8520 ss       298 LIG      -0.022800
      6 C1          50.4050    48.0240    37.5760 cc       298 LIG      -0.216100
      7 H           50.9450    47.6400    36.7840 h4       298 LIG       0.139000
      8 C2          49.8040    47.2680    38.6070 cd       298 LIG      -0.066900
      9 BR19        49.9250    45.3920    38.6740 br       298 LIG      -0.121100
     10 C5          49.1140    48.0510    39.5740 cd       298 LIG       0.141100
     11 O8          48.4460    47.4240    40.6940 os       298 LIG      -0.289900
     12 C9          49.2120    47.4480    41.9170 c3       298 LIG       0.008400
     13 H1          49.6220    48.4270    42.0530 h1       298 LIG       0.053200
     14 H2          49.9920    46.7200    41.8430 h1       298 LIG       0.053200
     15 C10         48.3390    47.1000    43.1250 c        298 LIG       0.916600
     16 O15         47.1710    46.8800    43.0460 o        298 LIG      -0.854300
     17 O13         48.9980    47.0530    44.2940 o        298 LIG      -0.854300
@<TRIPOS>BOND
     1     1     2 1   
     2     2     3 1   
     3     2     4 1   
     4     4     5 1   
     5     4    10 2   
     6     5     6 1   
     7     6     7 1   
     8     6     8 2   
     9     8     9 1   
    10     8    10 1   
    11    10    11 1   
    12    11    12 1   
    13    12    13 1   
    14    12    14 1   
    15    12    15 1   
    16    15    16 1   
    17    15    17 1   
@<TRIPOS>SUBSTRUCTURE
     1 LIG         1 TEMP              0 ****  ****    0 ROOT
